REMARK  4 active torsions:
REMARK  status: ('A' for Active; 'I' for Inactive)
REMARK    1  A    between atoms: O_3  and  C_24 
REMARK    2  A    between atoms: N_5  and  C_8 
REMARK    3  A    between atoms: N_6  and  C_15 
REMARK    4  A    between atoms: C_18  and  C_24 
ROOT
ATOM      1  F           0      -2.216   2.783   0.361  0.00  0.00    -0.204 F 
ATOM      2  O           0       2.809   2.524   0.233  0.00  0.00    -0.286 OA
ATOM      3  N           0       1.528  -1.311  -0.291  0.00  0.00    -0.350 N 
ATOM      4  C           0       0.551  -0.289  -0.126  0.00  0.00     0.051 A 
ATOM      5  C           0       2.870  -0.982  -0.269  0.00  0.00     0.114 A 
ATOM      6  C           0       0.966   1.048   0.057  0.00  0.00     0.045 A 
ATOM      7  C           0      -0.829  -0.552  -0.138  0.00  0.00     0.063 A 
ATOM      8  C           0      -1.759   0.479   0.026  0.00  0.00     0.071 A 
ATOM      9  C           0       3.369   0.249  -0.102  0.00  0.00     0.104 A 
ATOM     10  C           0       2.416   1.374   0.077  0.00  0.00     0.202 A 
ATOM     11  C           0       0.034   2.080   0.221  0.00  0.00     0.062 A 
ATOM     12  C           0      -1.329   1.790   0.205  0.00  0.00     0.143 A 
ENDROOT
BRANCH   8  13
ATOM     13  N           0      -3.127   0.188   0.011  0.00  0.00    -0.375 N 
ATOM     14  C           0      -3.959   0.829  -1.016  0.00  0.00     0.153 C 
ATOM     15  C           0      -5.428   0.828  -0.593  0.00  0.00     0.289 C 
ATOM     16  N           0      -5.881  -0.518  -0.246  0.00  0.00     0.086 N 
ATOM     17  C           0      -5.081  -1.050   0.856  0.00  0.00     0.289 C 
ATOM     18  H           0      -6.860  -0.480   0.038  0.00  0.00     0.316 HD
ATOM     19  C           0      -3.599  -1.117   0.488  0.00  0.00     0.153 C 
ENDBRANCH   8  13
BRANCH   3  20
ATOM     20  C           0       1.146  -2.727  -0.486  0.00  0.00     0.090 A 
ATOM     21  C           0       1.692  -3.795   0.401  0.00  0.00     0.028 A 
ATOM     22  C           0       0.242  -3.416   0.481  0.00  0.00     0.028 A 
ENDBRANCH   3  20
BRANCH   9  23
ATOM     23  C           0       4.823   0.415  -0.105  0.00  0.00     0.181 C 
ATOM     24  O           0       5.598  -0.290  -0.726  0.00  0.00    -0.646 OA
BRANCH  23  25
ATOM     25  O           0       5.162   1.459   0.681  0.00  0.00    -0.772 OA
ATOM     26  H           0       6.133   1.603   0.705  0.00  0.00     0.167 HD
ENDBRANCH  23  25
ENDBRANCH   9  23
TORSDOF 4
