REMARK  3 active torsions:
REMARK  status: ('A' for Active; 'I' for Inactive)
REMARK    1  A    between atoms: O_4  and  C_26 
REMARK    2  A    between atoms: N_6  and  C_12 
REMARK    3  A    between atoms: C_25  and  C_26 
ROOT
ATOM      1  F           0      37.093   2.951  19.139  0.00  0.00    -0.204 F 
ATOM      2  O           0      38.614   3.723  23.553  0.00  0.00    -0.344 OA
ATOM      3  O           0      42.106   3.348  18.664  0.00  0.00    -0.286 OA
ATOM      4  N           0      41.322   3.933  22.617  0.00  0.00    -0.346 N 
ATOM      5  C           0      40.970   4.240  24.006  0.00  0.00     0.110 C 
ATOM      6  C           0      37.862   3.351  21.349  0.00  0.00     0.105 A 
ATOM      7  C           0      40.244   3.656  21.750  0.00  0.00     0.085 A 
ATOM      8  C           0      38.926   3.572  22.224  0.00  0.00     0.126 A 
ATOM      9  C           0      39.730   3.438  24.402  0.00  0.00     0.201 C 
ATOM     10  C           0      40.474   3.463  20.375  0.00  0.00     0.048 A 
ATOM     11  C           0      38.107   3.174  19.988  0.00  0.00     0.146 A 
ATOM     12  C           0      42.605   3.997  22.112  0.00  0.00     0.114 A 
ATOM     13  C           0      39.411   3.222  19.498  0.00  0.00     0.062 A 
ATOM     14  C           0      40.758   5.747  24.173  0.00  0.00     0.035 C 
ATOM     15  C           0      41.864   3.525  19.851  0.00  0.00     0.202 A 
ATOM     16  C           0      42.947   3.812  20.831  0.00  0.00     0.104 A 
ENDROOT
BRANCH   6  17
ATOM     17  N           0      36.546   3.292  21.820  0.00  0.00    -0.373 N 
ATOM     18  C           0      36.293   3.125  23.254  0.00  0.00     0.153 C 
ATOM     19  C           0      34.877   3.587  23.609  0.00  0.00     0.291 C 
ATOM     20  N           0      33.878   2.916  22.768  0.00  0.00     0.087 N 
ATOM     21  C           0      34.127   3.223  21.355  0.00  0.00     0.291 C 
ATOM     22  C           0      32.527   3.325  23.152  0.00  0.00     0.310 C 
ATOM     23  C           0      35.517   2.748  20.926  0.00  0.00     0.153 C 
ENDBRANCH   6  17
BRANCH  16  24
ATOM     24  C           0      44.360   3.915  20.466  0.00  0.00     0.181 C 
ATOM     25  O           0      45.146   4.704  20.961  0.00  0.00    -0.646 OA
BRANCH  24  26
ATOM     26  O           0      44.649   3.009  19.509  0.00  0.00    -0.772 OA
ATOM     27  H           0      43.866   2.474  19.259  0.00  0.00     0.167 HD
ENDBRANCH  24  26
ENDBRANCH  16  24
TORSDOF 3
