REMARK  3 active torsions:
REMARK  status: ('A' for Active; 'I' for Inactive)
REMARK    1  A    between atoms: O_4  and  C_26 
REMARK    2  A    between atoms: N_6  and  C_12 
REMARK    3  A    between atoms: C_25  and  C_26 
ROOT
ATOM      1  F           0      37.137   2.860  19.122  0.00  0.00    -0.204 F 
ATOM      2  O           0      38.621   3.728  23.531  0.00  0.00    -0.344 OA
ATOM      3  O           0      42.144   3.341  18.664  0.00  0.00    -0.286 OA
ATOM      4  N           0      41.329   3.973  22.604  0.00  0.00    -0.346 N 
ATOM      5  C           0      40.965   4.295  23.986  0.00  0.00     0.110 C 
ATOM      6  C           0      37.888   3.308  21.329  0.00  0.00     0.105 A 
ATOM      7  C           0      40.262   3.662  21.737  0.00  0.00     0.085 A 
ATOM      8  C           0      38.943   3.562  22.206  0.00  0.00     0.126 A 
ATOM      9  C           0      39.738   3.477  24.389  0.00  0.00     0.201 C 
ATOM     10  C           0      40.502   3.452  20.366  0.00  0.00     0.048 A 
ATOM     11  C           0      38.142   3.114  19.972  0.00  0.00     0.146 A 
ATOM     12  C           0      42.614   4.053  22.105  0.00  0.00     0.114 A 
ATOM     13  C           0      39.448   3.178  19.487  0.00  0.00     0.062 A 
ATOM     14  C           0      40.726   5.801  24.129  0.00  0.00     0.035 C 
ATOM     15  C           0      41.893   3.532  19.848  0.00  0.00     0.202 A 
ATOM     16  C           0      42.965   3.854  20.828  0.00  0.00     0.104 A 
ENDROOT
BRANCH   6  17
ATOM     17  N           0      36.570   3.233  21.795  0.00  0.00    -0.373 N 
ATOM     18  C           0      36.314   2.966  23.214  0.00  0.00     0.153 C 
ATOM     19  C           0      34.904   3.420  23.600  0.00  0.00     0.291 C 
ATOM     20  N           0      33.896   2.824  22.714  0.00  0.00     0.087 N 
ATOM     21  C           0      34.151   3.228  21.326  0.00  0.00     0.291 C 
ATOM     22  C           0      32.551   3.222  23.126  0.00  0.00     0.310 C 
ATOM     23  C           0      35.535   2.767  20.864  0.00  0.00     0.153 C 
ENDBRANCH   6  17
BRANCH  16  24
ATOM     24  C           0      44.379   3.977  20.468  0.00  0.00     0.181 C 
ATOM     25  O           0      45.140   4.806  20.934  0.00  0.00    -0.646 OA
BRANCH  24  26
ATOM     26  O           0      44.697   3.038  19.553  0.00  0.00    -0.772 OA
ATOM     27  H           0      43.929   2.475  19.319  0.00  0.00     0.167 HD
ENDBRANCH  24  26
ENDBRANCH  16  24
TORSDOF 3
