REMARK  3 active torsions:
REMARK  status: ('A' for Active; 'I' for Inactive)
REMARK    1  A    between atoms: O_4  and  C_26 
REMARK    2  A    between atoms: N_6  and  C_12 
REMARK    3  A    between atoms: C_25  and  C_26 
ROOT
ATOM      1  F           0      37.108   2.928  19.130  0.00  0.00    -0.204 F 
ATOM      2  O           0      38.616   3.726  23.544  0.00  0.00    -0.344 OA
ATOM      3  O           0      42.120   3.355  18.663  0.00  0.00    -0.286 OA
ATOM      4  N           0      41.324   3.950  22.612  0.00  0.00    -0.346 N 
ATOM      5  C           0      40.968   4.261  23.999  0.00  0.00     0.110 C 
ATOM      6  C           0      37.871   3.341  21.340  0.00  0.00     0.105 A 
ATOM      7  C           0      40.250   3.663  21.745  0.00  0.00     0.085 A 
ATOM      8  C           0      38.932   3.572  22.216  0.00  0.00     0.126 A 
ATOM      9  C           0      39.733   3.452  24.396  0.00  0.00     0.201 C 
ATOM     10  C           0      40.484   3.466  20.371  0.00  0.00     0.048 A 
ATOM     11  C           0      38.119   3.160  19.980  0.00  0.00     0.146 A 
ATOM     12  C           0      42.608   4.021  22.110  0.00  0.00     0.114 A 
ATOM     13  C           0      39.424   3.215  19.492  0.00  0.00     0.062 A 
ATOM     14  C           0      40.747   5.767  24.160  0.00  0.00     0.035 C 
ATOM     15  C           0      41.875   3.535  19.849  0.00  0.00     0.202 A 
ATOM     16  C           0      42.953   3.833  20.829  0.00  0.00     0.104 A 
ENDROOT
BRANCH   6  17
ATOM     17  N           0      36.554   3.276  21.809  0.00  0.00    -0.373 N 
ATOM     18  C           0      36.300   3.078  23.239  0.00  0.00     0.153 C 
ATOM     19  C           0      34.885   3.536  23.603  0.00  0.00     0.291 C 
ATOM     20  N           0      33.884   2.886  22.747  0.00  0.00     0.087 N 
ATOM     21  C           0      34.135   3.224  21.341  0.00  0.00     0.291 C 
ATOM     22  C           0      32.535   3.291  23.139  0.00  0.00     0.310 C 
ATOM     23  C           0      35.524   2.754  20.902  0.00  0.00     0.153 C 
ENDBRANCH   6  17
BRANCH  16  24
ATOM     24  C           0      44.367   3.943  20.467  0.00  0.00     0.181 C 
ATOM     25  O           0      45.117   4.814  20.870  0.00  0.00    -0.646 OA
BRANCH  24  26
ATOM     26  O           0      44.700   2.940  19.628  0.00  0.00    -0.772 OA
ATOM     27  H           0      43.911   2.474  19.279  0.00  0.00     0.167 HD
ENDBRANCH  24  26
ENDBRANCH  16  24
TORSDOF 3
