REMARK  3 active torsions:
REMARK  status: ('A' for Active; 'I' for Inactive)
REMARK    1  A    between atoms: O_4  and  C_26 
REMARK    2  A    between atoms: N_6  and  C_12 
REMARK    3  A    between atoms: C_25  and  C_26 
ROOT
ATOM      1  F           0      37.142   2.884  19.138  0.00  0.00    -0.204 F 
ATOM      2  O           0      38.647   3.777  23.535  0.00  0.00    -0.344 OA
ATOM      3  O           0      42.153   3.308  18.663  0.00  0.00    -0.286 OA
ATOM      4  N           0      41.355   3.985  22.599  0.00  0.00    -0.346 N 
ATOM      5  C           0      40.999   4.324  23.979  0.00  0.00     0.110 C 
ATOM      6  C           0      37.904   3.345  21.339  0.00  0.00     0.105 A 
ATOM      7  C           0      40.282   3.678  21.737  0.00  0.00     0.085 A 
ATOM      8  C           0      38.964   3.595  22.210  0.00  0.00     0.126 A 
ATOM      9  C           0      39.764   3.522  24.392  0.00  0.00     0.201 C 
ATOM     10  C           0      40.516   3.452  20.368  0.00  0.00     0.048 A 
ATOM     11  C           0      38.152   3.135  19.983  0.00  0.00     0.146 A 
ATOM     12  C           0      42.640   4.046  22.095  0.00  0.00     0.114 A 
ATOM     13  C           0      39.457   3.182  19.494  0.00  0.00     0.062 A 
ATOM     14  C           0      40.775   5.833  24.108  0.00  0.00     0.035 C 
ATOM     15  C           0      41.907   3.513  19.845  0.00  0.00     0.202 A 
ATOM     16  C           0      42.985   3.833  20.819  0.00  0.00     0.104 A 
ENDROOT
BRANCH   6  17
ATOM     17  N           0      36.587   3.287  21.808  0.00  0.00    -0.373 N 
ATOM     18  C           0      36.332   3.117  23.242  0.00  0.00     0.153 C 
ATOM     19  C           0      34.917   3.581  23.596  0.00  0.00     0.291 C 
ATOM     20  N           0      33.917   2.914  22.754  0.00  0.00     0.087 N 
ATOM     21  C           0      34.168   3.223  21.341  0.00  0.00     0.291 C 
ATOM     22  C           0      32.567   3.324  23.137  0.00  0.00     0.310 C 
ATOM     23  C           0      35.557   2.746  20.912  0.00  0.00     0.153 C 
ENDBRANCH   6  17
BRANCH  16  24
ATOM     24  C           0      44.399   3.937  20.455  0.00  0.00     0.181 C 
ATOM     25  O           0      45.156   4.799  20.866  0.00  0.00    -0.646 OA
BRANCH  24  26
ATOM     26  O           0      44.724   2.941  19.605  0.00  0.00    -0.772 OA
ATOM     27  H           0      43.932   2.474  19.264  0.00  0.00     0.167 HD
ENDBRANCH  24  26
ENDBRANCH  16  24
TORSDOF 3
