REMARK  3 active torsions:
REMARK  status: ('A' for Active; 'I' for Inactive)
REMARK    1  A    between atoms: O_4  and  C_26 
REMARK    2  A    between atoms: N_6  and  C_12 
REMARK    3  A    between atoms: C_25  and  C_26 
ROOT
ATOM      1  F           0      37.128   2.945  19.093  0.00  0.00    -0.204 F 
ATOM      2  O           0      38.609   3.674  23.528  0.00  0.00    -0.344 OA
ATOM      3  O           0      42.143   3.368  18.664  0.00  0.00    -0.286 OA
ATOM      4  N           0      41.324   3.905  22.616  0.00  0.00    -0.346 N 
ATOM      5  C           0      40.960   4.196  24.006  0.00  0.00     0.110 C 
ATOM      6  C           0      37.878   3.323  21.314  0.00  0.00     0.105 A 
ATOM      7  C           0      40.255   3.633  21.738  0.00  0.00     0.085 A 
ATOM      8  C           0      38.934   3.539  22.200  0.00  0.00     0.126 A 
ATOM      9  C           0      39.720   3.384  24.382  0.00  0.00     0.201 C 
ATOM     10  C           0      40.497   3.456  20.363  0.00  0.00     0.048 A 
ATOM     11  C           0      38.134   3.162  19.953  0.00  0.00     0.146 A 
ATOM     12  C           0      42.612   3.980  22.123  0.00  0.00     0.114 A 
ATOM     13  C           0      39.442   3.221  19.474  0.00  0.00     0.062 A 
ATOM     14  C           0      40.741   5.700  24.188  0.00  0.00     0.035 C 
ATOM     15  C           0      41.891   3.531  19.851  0.00  0.00     0.202 A 
ATOM     16  C           0      42.964   3.811  20.842  0.00  0.00     0.104 A 
ENDROOT
BRANCH   6  17
ATOM     17  N           0      36.558   3.254  21.773  0.00  0.00    -0.373 N 
ATOM     18  C           0      36.294   3.030  23.198  0.00  0.00     0.153 C 
ATOM     19  C           0      34.879   3.486  23.562  0.00  0.00     0.291 C 
ATOM     20  N           0      33.881   2.857  22.688  0.00  0.00     0.087 N 
ATOM     21  C           0      34.142   3.219  21.289  0.00  0.00     0.291 C 
ATOM     22  C           0      32.530   3.258  23.079  0.00  0.00     0.310 C 
ATOM     23  C           0      35.531   2.753  20.851  0.00  0.00     0.153 C 
ENDBRANCH   6  17
BRANCH  16  24
ATOM     24  C           0      44.380   3.924  20.491  0.00  0.00     0.181 C 
ATOM     25  O           0      45.135   4.774  20.928  0.00  0.00    -0.646 OA
BRANCH  24  26
ATOM     26  O           0      44.710   2.949  19.618  0.00  0.00    -0.772 OA
ATOM     27  H           0      43.921   2.476  19.278  0.00  0.00     0.167 HD
ENDBRANCH  24  26
ENDBRANCH  16  24
TORSDOF 3
