REMARK  3 active torsions:
REMARK  status: ('A' for Active; 'I' for Inactive)
REMARK    1  A    between atoms: O_4  and  C_26 
REMARK    2  A    between atoms: N_6  and  C_12 
REMARK    3  A    between atoms: C_25  and  C_26 
ROOT
ATOM      1  F           0      37.097   2.996  19.119  0.00  0.00    -0.204 F 
ATOM      2  O           0      38.618   3.651  23.552  0.00  0.00    -0.344 OA
ATOM      3  O           0      42.116   3.342  18.662  0.00  0.00    -0.286 OA
ATOM      4  N           0      41.330   3.849  22.625  0.00  0.00    -0.346 N 
ATOM      5  C           0      40.980   4.130  24.020  0.00  0.00     0.110 C 
ATOM      6  C           0      37.867   3.338  21.338  0.00  0.00     0.105 A 
ATOM      7  C           0      40.252   3.604  21.751  0.00  0.00     0.085 A 
ATOM      8  C           0      38.932   3.526  22.220  0.00  0.00     0.126 A 
ATOM      9  C           0      39.729   3.334  24.396  0.00  0.00     0.201 C 
ATOM     10  C           0      40.482   3.438  20.372  0.00  0.00     0.048 A 
ATOM     11  C           0      38.112   3.187  19.975  0.00  0.00     0.146 A 
ATOM     12  C           0      42.616   3.908  22.125  0.00  0.00     0.114 A 
ATOM     13  C           0      39.417   3.230  19.488  0.00  0.00     0.062 A 
ATOM     14  C           0      40.786   5.635  24.220  0.00  0.00     0.035 C 
ATOM     15  C           0      41.874   3.495  19.852  0.00  0.00     0.202 A 
ATOM     16  C           0      42.958   3.747  20.840  0.00  0.00     0.104 A 
ENDROOT
BRANCH   6  17
ATOM     17  N           0      36.549   3.285  21.806  0.00  0.00    -0.373 N 
ATOM     18  C           0      36.291   3.140  23.242  0.00  0.00     0.153 C 
ATOM     19  C           0      34.874   3.606  23.584  0.00  0.00     0.291 C 
ATOM     20  N           0      33.877   2.921  22.751  0.00  0.00     0.087 N 
ATOM     21  C           0      34.131   3.206  21.333  0.00  0.00     0.291 C 
ATOM     22  C           0      32.525   3.334  23.123  0.00  0.00     0.310 C 
ATOM     23  C           0      35.523   2.726  20.917  0.00  0.00     0.153 C 
ENDBRANCH   6  17
BRANCH  16  24
ATOM     24  C           0      44.373   3.840  20.480  0.00  0.00     0.181 C 
ATOM     25  O           0      45.147   4.668  20.929  0.00  0.00    -0.646 OA
BRANCH  24  26
ATOM     26  O           0      44.679   2.877  19.586  0.00  0.00    -0.772 OA
ATOM     27  H           0      43.898   2.333  19.349  0.00  0.00     0.167 HD
ENDBRANCH  24  26
ENDBRANCH  16  24
TORSDOF 3
