REMARK  3 active torsions:
REMARK  status: ('A' for Active; 'I' for Inactive)
REMARK    1  A    between atoms: O_4  and  C_26 
REMARK    2  A    between atoms: N_6  and  C_12 
REMARK    3  A    between atoms: C_25  and  C_26 
ROOT
ATOM      1  F           0      37.126   2.937  19.101  0.00  0.00    -0.204 F 
ATOM      2  O           0      38.611   3.730  23.523  0.00  0.00    -0.344 OA
ATOM      3  O           0      42.143   3.331  18.664  0.00  0.00    -0.286 OA
ATOM      4  N           0      41.327   3.935  22.608  0.00  0.00    -0.346 N 
ATOM      5  C           0      40.964   4.249  23.992  0.00  0.00     0.110 C 
ATOM      6  C           0      37.878   3.348  21.315  0.00  0.00     0.105 A 
ATOM      7  C           0      40.257   3.654  21.734  0.00  0.00     0.085 A 
ATOM      8  C           0      38.935   3.572  22.197  0.00  0.00     0.126 A 
ATOM      9  C           0      39.721   3.449  24.382  0.00  0.00     0.201 C 
ATOM     10  C           0      40.497   3.454  20.362  0.00  0.00     0.048 A 
ATOM     11  C           0      38.133   3.164  19.957  0.00  0.00     0.146 A 
ATOM     12  C           0      42.615   3.996  22.113  0.00  0.00     0.114 A 
ATOM     13  C           0      39.441   3.209  19.477  0.00  0.00     0.062 A 
ATOM     14  C           0      40.752   5.757  24.151  0.00  0.00     0.035 C 
ATOM     15  C           0      41.892   3.514  19.849  0.00  0.00     0.202 A 
ATOM     16  C           0      42.966   3.805  20.835  0.00  0.00     0.104 A 
ENDROOT
BRANCH   6  17
ATOM     17  N           0      36.558   3.292  21.775  0.00  0.00    -0.373 N 
ATOM     18  C           0      36.294   3.132  23.208  0.00  0.00     0.153 C 
ATOM     19  C           0      34.875   3.596  23.549  0.00  0.00     0.291 C 
ATOM     20  N           0      33.882   2.921  22.704  0.00  0.00     0.087 N 
ATOM     21  C           0      34.142   3.220  21.291  0.00  0.00     0.291 C 
ATOM     22  C           0      32.528   3.332  23.075  0.00  0.00     0.310 C 
ATOM     23  C           0      35.536   2.743  20.876  0.00  0.00     0.153 C 
ENDBRANCH   6  17
BRANCH  16  24
ATOM     24  C           0      44.383   3.906  20.482  0.00  0.00     0.181 C 
ATOM     25  O           0      45.158   4.718  20.957  0.00  0.00    -0.646 OA
BRANCH  24  26
ATOM     26  O           0      44.688   2.969  19.560  0.00  0.00    -0.772 OA
ATOM     27  H           0      43.896   2.475  19.259  0.00  0.00     0.167 HD
ENDBRANCH  24  26
ENDBRANCH  16  24
TORSDOF 3
