REMARK  3 active torsions:
REMARK  status: ('A' for Active; 'I' for Inactive)
REMARK    1  A    between atoms: O_4  and  C_26 
REMARK    2  A    between atoms: N_6  and  C_12 
REMARK    3  A    between atoms: C_25  and  C_26 
ROOT
ATOM      1  F           0      37.094   2.987  19.122  0.00  0.00    -0.204 F 
ATOM      2  O           0      38.615   3.640  23.556  0.00  0.00    -0.344 OA
ATOM      3  O           0      42.111   3.352  18.663  0.00  0.00    -0.286 OA
ATOM      4  N           0      41.326   3.849  22.628  0.00  0.00    -0.346 N 
ATOM      5  C           0      40.975   4.126  24.024  0.00  0.00     0.110 C 
ATOM      6  C           0      37.864   3.328  21.342  0.00  0.00     0.105 A 
ATOM      7  C           0      40.247   3.602  21.754  0.00  0.00     0.085 A 
ATOM      8  C           0      38.928   3.518  22.224  0.00  0.00     0.126 A 
ATOM      9  C           0      39.727   3.325  24.398  0.00  0.00     0.201 C 
ATOM     10  C           0      40.478   3.440  20.375  0.00  0.00     0.048 A 
ATOM     11  C           0      38.109   3.181  19.978  0.00  0.00     0.146 A 
ATOM     12  C           0      42.611   3.914  22.127  0.00  0.00     0.114 A 
ATOM     13  C           0      39.414   3.229  19.490  0.00  0.00     0.062 A 
ATOM     14  C           0      40.776   5.630  24.227  0.00  0.00     0.035 C 
ATOM     15  C           0      41.869   3.503  19.854  0.00  0.00     0.202 A 
ATOM     16  C           0      42.953   3.757  20.842  0.00  0.00     0.104 A 
ENDROOT
BRANCH   6  17
ATOM     17  N           0      36.546   3.269  21.810  0.00  0.00    -0.373 N 
ATOM     18  C           0      36.290   3.076  23.240  0.00  0.00     0.153 C 
ATOM     19  C           0      34.877   3.541  23.601  0.00  0.00     0.291 C 
ATOM     20  N           0      33.873   2.893  22.746  0.00  0.00     0.087 N 
ATOM     21  C           0      34.127   3.226  21.339  0.00  0.00     0.291 C 
ATOM     22  C           0      32.525   3.305  23.136  0.00  0.00     0.310 C 
ATOM     23  C           0      35.514   2.749  20.904  0.00  0.00     0.153 C 
ENDBRANCH   6  17
BRANCH  16  24
ATOM     24  C           0      44.368   3.856  20.482  0.00  0.00     0.181 C 
ATOM     25  O           0      45.124   4.722  20.885  0.00  0.00    -0.646 OA
BRANCH  24  26
ATOM     26  O           0      44.695   2.849  19.645  0.00  0.00    -0.772 OA
ATOM     27  H           0      43.909   2.475  19.193  0.00  0.00     0.167 HD
ENDBRANCH  24  26
ENDBRANCH  16  24
TORSDOF 3
