REMARK  3 active torsions:
REMARK  status: ('A' for Active; 'I' for Inactive)
REMARK    1  A    between atoms: O_4  and  C_26 
REMARK    2  A    between atoms: N_6  and  C_12 
REMARK    3  A    between atoms: C_25  and  C_26 
ROOT
ATOM      1  F           0      37.119   2.984  19.095  0.00  0.00    -0.204 F 
ATOM      2  O           0      38.613   3.667  23.532  0.00  0.00    -0.344 OA
ATOM      3  O           0      42.140   3.331  18.664  0.00  0.00    -0.286 OA
ATOM      4  N           0      41.331   3.861  22.620  0.00  0.00    -0.346 N 
ATOM      5  C           0      40.972   4.151  24.011  0.00  0.00     0.110 C 
ATOM      6  C           0      37.875   3.340  21.316  0.00  0.00     0.105 A 
ATOM      7  C           0      40.257   3.610  21.741  0.00  0.00     0.085 A 
ATOM      8  C           0      38.935   3.534  22.203  0.00  0.00     0.126 A 
ATOM      9  C           0      39.720   3.357  24.384  0.00  0.00     0.201 C 
ATOM     10  C           0      40.495   3.437  20.365  0.00  0.00     0.048 A 
ATOM     11  C           0      38.128   3.181  19.955  0.00  0.00     0.146 A 
ATOM     12  C           0      42.619   3.919  22.127  0.00  0.00     0.114 A 
ATOM     13  C           0      39.437   3.222  19.475  0.00  0.00     0.062 A 
ATOM     14  C           0      40.776   5.657  24.201  0.00  0.00     0.035 C 
ATOM     15  C           0      41.891   3.492  19.853  0.00  0.00     0.202 A 
ATOM     16  C           0      42.969   3.750  20.845  0.00  0.00     0.104 A 
ENDROOT
BRANCH   6  17
ATOM     17  N           0      36.555   3.289  21.776  0.00  0.00    -0.373 N 
ATOM     18  C           0      36.289   3.129  23.209  0.00  0.00     0.153 C 
ATOM     19  C           0      34.872   3.599  23.549  0.00  0.00     0.291 C 
ATOM     20  N           0      33.877   2.928  22.703  0.00  0.00     0.087 N 
ATOM     21  C           0      34.139   3.227  21.291  0.00  0.00     0.291 C 
ATOM     22  C           0      32.525   3.344  23.074  0.00  0.00     0.310 C 
ATOM     23  C           0      35.531   2.744  20.876  0.00  0.00     0.153 C 
ENDBRANCH   6  17
BRANCH  16  24
ATOM     24  C           0      44.386   3.843  20.493  0.00  0.00     0.181 C 
ATOM     25  O           0      45.169   4.637  20.982  0.00  0.00    -0.646 OA
BRANCH  24  26
ATOM     26  O           0      44.681   2.920  19.554  0.00  0.00    -0.772 OA
ATOM     27  H           0      43.879   2.475  19.208  0.00  0.00     0.167 HD
ENDBRANCH  24  26
ENDBRANCH  16  24
TORSDOF 3
