REMARK  3 active torsions:
REMARK  status: ('A' for Active; 'I' for Inactive)
REMARK    1  A    between atoms: O_4  and  C_26 
REMARK    2  A    between atoms: N_6  and  C_12 
REMARK    3  A    between atoms: C_25  and  C_26 
ROOT
ATOM      1  F           0      37.113   2.957  19.113  0.00  0.00    -0.204 F 
ATOM      2  O           0      38.618   3.682  23.540  0.00  0.00    -0.344 OA
ATOM      3  O           0      42.131   3.318  18.664  0.00  0.00    -0.286 OA
ATOM      4  N           0      41.332   3.878  22.618  0.00  0.00    -0.346 N 
ATOM      5  C           0      40.977   4.177  24.007  0.00  0.00     0.110 C 
ATOM      6  C           0      37.875   3.334  21.329  0.00  0.00     0.105 A 
ATOM      7  C           0      40.257   3.616  21.744  0.00  0.00     0.085 A 
ATOM      8  C           0      38.936   3.539  22.211  0.00  0.00     0.126 A 
ATOM      9  C           0      39.729   3.382  24.391  0.00  0.00     0.201 C 
ATOM     10  C           0      40.492   3.432  20.369  0.00  0.00     0.048 A 
ATOM     11  C           0      38.124   3.165  19.968  0.00  0.00     0.146 A 
ATOM     12  C           0      42.619   3.936  22.120  0.00  0.00     0.114 A 
ATOM     13  C           0      39.431   3.207  19.484  0.00  0.00     0.062 A 
ATOM     14  C           0      40.776   5.685  24.185  0.00  0.00     0.035 C 
ATOM     15  C           0      41.885   3.488  19.851  0.00  0.00     0.202 A 
ATOM     16  C           0      42.965   3.758  20.838  0.00  0.00     0.104 A 
ENDROOT
BRANCH   6  17
ATOM     17  N           0      36.556   3.282  21.793  0.00  0.00    -0.373 N 
ATOM     18  C           0      36.295   3.118  23.227  0.00  0.00     0.153 C 
ATOM     19  C           0      34.879   3.587  23.573  0.00  0.00     0.291 C 
ATOM     20  N           0      33.881   2.919  22.729  0.00  0.00     0.087 N 
ATOM     21  C           0      34.138   3.223  21.316  0.00  0.00     0.291 C 
ATOM     22  C           0      32.530   3.335  23.105  0.00  0.00     0.310 C 
ATOM     23  C           0      35.528   2.740  20.895  0.00  0.00     0.153 C 
ENDBRANCH   6  17
BRANCH  16  24
ATOM     24  C           0      44.381   3.853  20.481  0.00  0.00     0.181 C 
ATOM     25  O           0      45.152   4.685  20.926  0.00  0.00    -0.646 OA
BRANCH  24  26
ATOM     26  O           0      44.691   2.885  19.594  0.00  0.00    -0.772 OA
ATOM     27  H           0      43.891   2.474  19.201  0.00  0.00     0.167 HD
ENDBRANCH  24  26
ENDBRANCH  16  24
TORSDOF 3
