REMARK  3 active torsions:
REMARK  status: ('A' for Active; 'I' for Inactive)
REMARK    1  A    between atoms: O_4  and  C_26 
REMARK    2  A    between atoms: N_6  and  C_12 
REMARK    3  A    between atoms: C_25  and  C_26 
ROOT
ATOM      1  F           0      37.138   2.939  19.115  0.00  0.00    -0.204 F 
ATOM      2  O           0      38.631   3.727  23.536  0.00  0.00    -0.344 OA
ATOM      3  O           0      42.152   3.360  18.666  0.00  0.00    -0.286 OA
ATOM      4  N           0      41.343   3.948  22.613  0.00  0.00    -0.346 N 
ATOM      5  C           0      40.982   4.257  24.000  0.00  0.00     0.110 C 
ATOM      6  C           0      37.893   3.347  21.328  0.00  0.00     0.105 A 
ATOM      7  C           0      40.272   3.664  21.742  0.00  0.00     0.085 A 
ATOM      8  C           0      38.952   3.575  22.209  0.00  0.00     0.126 A 
ATOM      9  C           0      39.745   3.449  24.391  0.00  0.00     0.201 C 
ATOM     10  C           0      40.510   3.470  20.368  0.00  0.00     0.048 A 
ATOM     11  C           0      38.146   3.168  19.969  0.00  0.00     0.146 A 
ATOM     12  C           0      42.629   4.018  22.116  0.00  0.00     0.114 A 
ATOM     13  C           0      39.453   3.222  19.486  0.00  0.00     0.062 A 
ATOM     14  C           0      40.762   5.763  24.163  0.00  0.00     0.035 C 
ATOM     15  C           0      41.903   3.538  19.852  0.00  0.00     0.202 A 
ATOM     16  C           0      42.978   3.832  20.836  0.00  0.00     0.104 A 
ENDROOT
BRANCH   6  17
ATOM     17  N           0      36.575   3.283  21.792  0.00  0.00    -0.373 N 
ATOM     18  C           0      36.316   3.092  23.223  0.00  0.00     0.153 C 
ATOM     19  C           0      34.899   3.551  23.578  0.00  0.00     0.291 C 
ATOM     20  N           0      33.902   2.895  22.722  0.00  0.00     0.087 N 
ATOM     21  C           0      34.158   3.225  21.315  0.00  0.00     0.291 C 
ATOM     22  C           0      32.550   3.300  23.107  0.00  0.00     0.310 C 
ATOM     23  C           0      35.549   2.754  20.885  0.00  0.00     0.153 C 
ENDBRANCH   6  17
BRANCH  16  24
ATOM     24  C           0      44.393   3.941  20.479  0.00  0.00     0.181 C 
ATOM     25  O           0      45.166   4.752  20.959  0.00  0.00    -0.646 OA
BRANCH  24  26
ATOM     26  O           0      44.699   3.014  19.548  0.00  0.00    -0.772 OA
ATOM     27  H           0      43.923   2.466  19.304  0.00  0.00     0.167 HD
ENDBRANCH  24  26
ENDBRANCH  16  24
TORSDOF 3
