REMARK  3 active torsions:
REMARK  status: ('A' for Active; 'I' for Inactive)
REMARK    1  A    between atoms: O_4  and  C_26 
REMARK    2  A    between atoms: N_6  and  C_12 
REMARK    3  A    between atoms: C_25  and  C_26 
ROOT
ATOM      1  F           0      37.144   2.850  19.118  0.00  0.00    -0.204 F 
ATOM      2  O           0      38.634   3.696  23.529  0.00  0.00    -0.344 OA
ATOM      3  O           0      42.156   3.285  18.663  0.00  0.00    -0.286 OA
ATOM      4  N           0      41.345   3.917  22.604  0.00  0.00    -0.346 N 
ATOM      5  C           0      40.983   4.241  23.986  0.00  0.00     0.110 C 
ATOM      6  C           0      37.898   3.287  21.326  0.00  0.00     0.105 A 
ATOM      7  C           0      40.275   3.618  21.736  0.00  0.00     0.085 A 
ATOM      8  C           0      38.955   3.529  22.204  0.00  0.00     0.126 A 
ATOM      9  C           0      39.749   3.433  24.387  0.00  0.00     0.201 C 
ATOM     10  C           0      40.513   3.408  20.365  0.00  0.00     0.048 A 
ATOM     11  C           0      38.151   3.093  19.969  0.00  0.00     0.146 A 
ATOM     12  C           0      42.631   3.986  22.105  0.00  0.00     0.114 A 
ATOM     13  C           0      39.457   3.146  19.485  0.00  0.00     0.062 A 
ATOM     14  C           0      40.757   5.748  24.132  0.00  0.00     0.035 C 
ATOM     15  C           0      41.906   3.476  19.847  0.00  0.00     0.202 A 
ATOM     16  C           0      42.981   3.786  20.828  0.00  0.00     0.104 A 
ENDROOT
BRANCH   6  17
ATOM     17  N           0      36.579   3.223  21.791  0.00  0.00    -0.373 N 
ATOM     18  C           0      36.321   2.972  23.212  0.00  0.00     0.153 C 
ATOM     19  C           0      34.912   3.437  23.593  0.00  0.00     0.291 C 
ATOM     20  N           0      33.903   2.837  22.711  0.00  0.00     0.087 N 
ATOM     21  C           0      34.160   3.226  21.320  0.00  0.00     0.291 C 
ATOM     22  C           0      32.559   3.246  23.118  0.00  0.00     0.310 C 
ATOM     23  C           0      35.543   2.753  20.864  0.00  0.00     0.153 C 
ENDBRANCH   6  17
BRANCH  16  24
ATOM     24  C           0      44.395   3.897  20.469  0.00  0.00     0.181 C 
ATOM     25  O           0      45.149   4.758  20.888  0.00  0.00    -0.646 OA
BRANCH  24  26
ATOM     26  O           0      44.725   2.907  19.614  0.00  0.00    -0.772 OA
ATOM     27  H           0      43.934   2.471  19.231  0.00  0.00     0.167 HD
ENDBRANCH  24  26
ENDBRANCH  16  24
TORSDOF 3
