REMARK  3 active torsions:
REMARK  status: ('A' for Active; 'I' for Inactive)
REMARK    1  A    between atoms: O_4  and  C_26 
REMARK    2  A    between atoms: N_6  and  C_12 
REMARK    3  A    between atoms: C_25  and  C_26 
ROOT
ATOM      1  F           0      37.122   2.988  19.099  0.00  0.00    -0.204 F 
ATOM      2  O           0      38.626   3.653  23.536  0.00  0.00    -0.344 OA
ATOM      3  O           0      42.143   3.329  18.661  0.00  0.00    -0.286 OA
ATOM      4  N           0      41.342   3.846  22.620  0.00  0.00    -0.346 N 
ATOM      5  C           0      40.986   4.131  24.013  0.00  0.00     0.110 C 
ATOM      6  C           0      37.883   3.335  21.321  0.00  0.00     0.105 A 
ATOM      7  C           0      40.267   3.600  21.742  0.00  0.00     0.085 A 
ATOM      8  C           0      38.945   3.524  22.206  0.00  0.00     0.126 A 
ATOM      9  C           0      39.734   3.337  24.385  0.00  0.00     0.201 C 
ATOM     10  C           0      40.502   3.431  20.365  0.00  0.00     0.048 A 
ATOM     11  C           0      38.134   3.181  19.958  0.00  0.00     0.146 A 
ATOM     12  C           0      42.630   3.903  22.124  0.00  0.00     0.114 A 
ATOM     13  C           0      39.441   3.222  19.476  0.00  0.00     0.062 A 
ATOM     14  C           0      40.793   5.637  24.208  0.00  0.00     0.035 C 
ATOM     15  C           0      41.896   3.486  19.850  0.00  0.00     0.202 A 
ATOM     16  C           0      42.976   3.739  20.841  0.00  0.00     0.104 A 
ENDROOT
BRANCH   6  17
ATOM     17  N           0      36.563   3.284  21.783  0.00  0.00    -0.373 N 
ATOM     18  C           0      36.300   3.129  23.217  0.00  0.00     0.153 C 
ATOM     19  C           0      34.883   3.599  23.558  0.00  0.00     0.291 C 
ATOM     20  N           0      33.887   2.924  22.716  0.00  0.00     0.087 N 
ATOM     21  C           0      34.147   3.219  21.301  0.00  0.00     0.291 C 
ATOM     22  C           0      32.535   3.341  23.087  0.00  0.00     0.310 C 
ATOM     23  C           0      35.539   2.736  20.886  0.00  0.00     0.153 C 
ENDBRANCH   6  17
BRANCH  16  24
ATOM     24  C           0      44.393   3.830  20.487  0.00  0.00     0.181 C 
ATOM     25  O           0      45.167   4.654  20.942  0.00  0.00    -0.646 OA
BRANCH  24  26
ATOM     26  O           0      44.699   2.871  19.589  0.00  0.00    -0.772 OA
ATOM     27  H           0      43.923   2.316  19.363  0.00  0.00     0.167 HD
ENDBRANCH  24  26
ENDBRANCH  16  24
TORSDOF 3
