REMARK  3 active torsions:
REMARK  status: ('A' for Active; 'I' for Inactive)
REMARK    1  A    between atoms: O_4  and  C_26 
REMARK    2  A    between atoms: N_6  and  C_12 
REMARK    3  A    between atoms: C_25  and  C_26 
ROOT
ATOM      1  F           0      37.118   2.905  19.122  0.00  0.00    -0.204 F 
ATOM      2  O           0      38.616   3.748  23.531  0.00  0.00    -0.344 OA
ATOM      3  O           0      42.133   3.304  18.664  0.00  0.00    -0.286 OA
ATOM      4  N           0      41.328   3.949  22.604  0.00  0.00    -0.346 N 
ATOM      5  C           0      40.970   4.277  23.986  0.00  0.00     0.110 C 
ATOM      6  C           0      37.876   3.341  21.328  0.00  0.00     0.105 A 
ATOM      7  C           0      40.256   3.656  21.737  0.00  0.00     0.085 A 
ATOM      8  C           0      38.936   3.577  22.205  0.00  0.00     0.126 A 
ATOM      9  C           0      39.729   3.479  24.388  0.00  0.00     0.201 C 
ATOM     10  C           0      40.492   3.442  20.366  0.00  0.00     0.048 A 
ATOM     11  C           0      38.128   3.142  19.972  0.00  0.00     0.146 A 
ATOM     12  C           0      42.614   4.008  22.105  0.00  0.00     0.114 A 
ATOM     13  C           0      39.434   3.186  19.487  0.00  0.00     0.062 A 
ATOM     14  C           0      40.754   5.786  24.129  0.00  0.00     0.035 C 
ATOM     15  C           0      41.885   3.500  19.848  0.00  0.00     0.202 A 
ATOM     16  C           0      42.962   3.804  20.828  0.00  0.00     0.104 A 
ENDROOT
BRANCH   6  17
ATOM     17  N           0      36.558   3.287  21.794  0.00  0.00    -0.373 N 
ATOM     18  C           0      36.299   3.122  23.228  0.00  0.00     0.153 C 
ATOM     19  C           0      34.883   3.589  23.575  0.00  0.00     0.291 C 
ATOM     20  N           0      33.884   2.920  22.732  0.00  0.00     0.087 N 
ATOM     21  C           0      34.140   3.224  21.319  0.00  0.00     0.291 C 
ATOM     22  C           0      32.534   3.333  23.109  0.00  0.00     0.310 C 
ATOM     23  C           0      35.531   2.744  20.897  0.00  0.00     0.153 C 
ENDBRANCH   6  17
BRANCH  16  24
ATOM     24  C           0      44.378   3.904  20.469  0.00  0.00     0.181 C 
ATOM     25  O           0      45.155   4.713  20.943  0.00  0.00    -0.646 OA
BRANCH  24  26
ATOM     26  O           0      44.678   2.970  19.542  0.00  0.00    -0.772 OA
ATOM     27  H           0      43.885   2.473  19.248  0.00  0.00     0.167 HD
ENDBRANCH  24  26
ENDBRANCH  16  24
TORSDOF 3
