REMARK  3 active torsions:
REMARK  status: ('A' for Active; 'I' for Inactive)
REMARK    1  A    between atoms: O_4  and  C_26 
REMARK    2  A    between atoms: N_6  and  C_12 
REMARK    3  A    between atoms: C_25  and  C_26 
ROOT
ATOM      1  F           0      37.189   2.853  19.106  0.00  0.00    -0.204 F 
ATOM      2  O           0      38.659   3.760  23.512  0.00  0.00    -0.344 OA
ATOM      3  O           0      42.198   3.328  18.660  0.00  0.00    -0.286 OA
ATOM      4  N           0      41.371   3.996  22.591  0.00  0.00    -0.346 N 
ATOM      5  C           0      41.003   4.331  23.969  0.00  0.00     0.110 C 
ATOM      6  C           0      37.933   3.321  21.311  0.00  0.00     0.105 A 
ATOM      7  C           0      40.306   3.678  21.723  0.00  0.00     0.085 A 
ATOM      8  C           0      38.986   3.582  22.189  0.00  0.00     0.126 A 
ATOM      9  C           0      39.774   3.516  24.375  0.00  0.00     0.201 C 
ATOM     10  C           0      40.550   3.455  20.355  0.00  0.00     0.048 A 
ATOM     11  C           0      38.191   3.114  19.957  0.00  0.00     0.146 A 
ATOM     12  C           0      42.657   4.071  22.095  0.00  0.00     0.114 A 
ATOM     13  C           0      39.498   3.174  19.476  0.00  0.00     0.062 A 
ATOM     14  C           0      40.763   5.837  24.097  0.00  0.00     0.035 C 
ATOM     15  C           0      41.943   3.530  19.841  0.00  0.00     0.202 A 
ATOM     16  C           0      43.012   3.861  20.821  0.00  0.00     0.104 A 
ENDROOT
BRANCH   6  17
ATOM     17  N           0      36.614   3.250  21.774  0.00  0.00    -0.373 N 
ATOM     18  C           0      36.354   3.014  23.197  0.00  0.00     0.153 C 
ATOM     19  C           0      34.940   3.469  23.568  0.00  0.00     0.291 C 
ATOM     20  N           0      33.938   2.849  22.691  0.00  0.00     0.087 N 
ATOM     21  C           0      34.196   3.224  21.296  0.00  0.00     0.291 C 
ATOM     22  C           0      32.590   3.250  23.090  0.00  0.00     0.310 C 
ATOM     23  C           0      35.584   2.759  20.849  0.00  0.00     0.153 C 
ENDBRANCH   6  17
BRANCH  16  24
ATOM     24  C           0      44.427   3.980  20.465  0.00  0.00     0.181 C 
ATOM     25  O           0      45.183   4.825  20.912  0.00  0.00    -0.646 OA
BRANCH  24  26
ATOM     26  O           0      44.754   3.019  19.576  0.00  0.00    -0.772 OA
ATOM     27  H           0      43.984   2.460  19.337  0.00  0.00     0.167 HD
ENDBRANCH  24  26
ENDBRANCH  16  24
TORSDOF 3
