REMARK  3 active torsions:
REMARK  status: ('A' for Active; 'I' for Inactive)
REMARK    1  A    between atoms: O_4  and  C_26 
REMARK    2  A    between atoms: N_6  and  C_12 
REMARK    3  A    between atoms: C_25  and  C_26 
ROOT
ATOM      1  F           0      37.197   2.852  19.126  0.00  0.00    -0.204 F 
ATOM      2  O           0      38.677   3.757  23.528  0.00  0.00    -0.344 OA
ATOM      3  O           0      42.202   3.352  18.664  0.00  0.00    -0.286 OA
ATOM      4  N           0      41.385   4.008  22.599  0.00  0.00    -0.346 N 
ATOM      5  C           0      41.019   4.338  23.979  0.00  0.00     0.110 C 
ATOM      6  C           0      37.946   3.319  21.329  0.00  0.00     0.105 A 
ATOM      7  C           0      40.318   3.687  21.734  0.00  0.00     0.085 A 
ATOM      8  C           0      39.000   3.584  22.204  0.00  0.00     0.126 A 
ATOM      9  C           0      39.796   3.517  24.387  0.00  0.00     0.201 C 
ATOM     10  C           0      40.559   3.468  20.365  0.00  0.00     0.048 A 
ATOM     11  C           0      38.201   3.117  19.974  0.00  0.00     0.146 A 
ATOM     12  C           0      42.669   4.090  22.099  0.00  0.00     0.114 A 
ATOM     13  C           0      39.506   3.184  19.488  0.00  0.00     0.062 A 
ATOM     14  C           0      40.773   5.844  24.111  0.00  0.00     0.035 C 
ATOM     15  C           0      41.950   3.550  19.846  0.00  0.00     0.202 A 
ATOM     16  C           0      43.021   3.884  20.823  0.00  0.00     0.104 A 
ENDROOT
BRANCH   6  17
ATOM     17  N           0      36.629   3.241  21.796  0.00  0.00    -0.373 N 
ATOM     18  C           0      36.373   2.931  23.206  0.00  0.00     0.153 C 
ATOM     19  C           0      34.969   3.385  23.611  0.00  0.00     0.291 C 
ATOM     20  N           0      33.953   2.828  22.708  0.00  0.00     0.087 N 
ATOM     21  C           0      34.208   3.275  21.333  0.00  0.00     0.291 C 
ATOM     22  C           0      32.613   3.225  23.136  0.00  0.00     0.310 C 
ATOM     23  C           0      35.587   2.816  20.853  0.00  0.00     0.153 C 
ENDBRANCH   6  17
BRANCH  16  24
ATOM     24  C           0      44.434   4.010  20.463  0.00  0.00     0.181 C 
ATOM     25  O           0      45.180   4.875  20.887  0.00  0.00    -0.646 OA
BRANCH  24  26
ATOM     26  O           0      44.771   3.030  19.599  0.00  0.00    -0.772 OA
ATOM     27  H           0      44.004   2.468  19.361  0.00  0.00     0.167 HD
ENDBRANCH  24  26
ENDBRANCH  16  24
TORSDOF 3
