REMARK  3 active torsions:
REMARK  status: ('A' for Active; 'I' for Inactive)
REMARK    1  A    between atoms: O_4  and  C_26 
REMARK    2  A    between atoms: N_6  and  C_12 
REMARK    3  A    between atoms: C_25  and  C_26 
ROOT
ATOM      1  F           0      37.117   2.972  19.110  0.00  0.00    -0.204 F 
ATOM      2  O           0      38.620   3.684  23.540  0.00  0.00    -0.344 OA
ATOM      3  O           0      42.135   3.345  18.663  0.00  0.00    -0.286 OA
ATOM      4  N           0      41.334   3.890  22.619  0.00  0.00    -0.346 N 
ATOM      5  C           0      40.978   4.183  24.009  0.00  0.00     0.110 C 
ATOM      6  C           0      37.878   3.342  21.328  0.00  0.00     0.105 A 
ATOM      7  C           0      40.260   3.629  21.744  0.00  0.00     0.085 A 
ATOM      8  C           0      38.939   3.547  22.210  0.00  0.00     0.126 A 
ATOM      9  C           0      39.731   3.384  24.390  0.00  0.00     0.201 C 
ATOM     10  C           0      40.495   3.450  20.368  0.00  0.00     0.048 A 
ATOM     11  C           0      38.128   3.179  19.966  0.00  0.00     0.146 A 
ATOM     12  C           0      42.621   3.952  22.121  0.00  0.00     0.114 A 
ATOM     13  C           0      39.435   3.225  19.483  0.00  0.00     0.062 A 
ATOM     14  C           0      40.774   5.689  24.193  0.00  0.00     0.035 C 
ATOM     15  C           0      41.888   3.510  19.851  0.00  0.00     0.202 A 
ATOM     16  C           0      42.967   3.780  20.839  0.00  0.00     0.104 A 
ENDROOT
BRANCH   6  17
ATOM     17  N           0      36.559   3.286  21.792  0.00  0.00    -0.373 N 
ATOM     18  C           0      36.298   3.117  23.224  0.00  0.00     0.153 C 
ATOM     19  C           0      34.882   3.581  23.572  0.00  0.00     0.291 C 
ATOM     20  N           0      33.885   2.914  22.725  0.00  0.00     0.087 N 
ATOM     21  C           0      34.142   3.223  21.313  0.00  0.00     0.291 C 
ATOM     22  C           0      32.533   3.326  23.103  0.00  0.00     0.310 C 
ATOM     23  C           0      35.533   2.745  20.891  0.00  0.00     0.153 C 
ENDBRANCH   6  17
BRANCH  16  24
ATOM     24  C           0      44.383   3.878  20.483  0.00  0.00     0.181 C 
ATOM     25  O           0      45.151   4.714  20.928  0.00  0.00    -0.646 OA
BRANCH  24  26
ATOM     26  O           0      44.697   2.911  19.596  0.00  0.00    -0.772 OA
ATOM     27  H           0      43.899   2.476  19.228  0.00  0.00     0.167 HD
ENDBRANCH  24  26
ENDBRANCH  16  24
TORSDOF 3
