REMARK  3 active torsions:
REMARK  status: ('A' for Active; 'I' for Inactive)
REMARK    1  A    between atoms: O_4  and  C_26 
REMARK    2  A    between atoms: N_6  and  C_12 
REMARK    3  A    between atoms: C_25  and  C_26 
ROOT
ATOM      1  F           0      37.109   2.973  19.102  0.00  0.00    -0.204 F 
ATOM      2  O           0      38.610   3.619  23.543  0.00  0.00    -0.344 OA
ATOM      3  O           0      42.126   3.362  18.662  0.00  0.00    -0.286 OA
ATOM      4  N           0      41.324   3.843  22.625  0.00  0.00    -0.346 N 
ATOM      5  C           0      40.966   4.114  24.020  0.00  0.00     0.110 C 
ATOM      6  C           0      37.869   3.310  21.325  0.00  0.00     0.105 A 
ATOM      7  C           0      40.250   3.594  21.746  0.00  0.00     0.085 A 
ATOM      8  C           0      38.929   3.502  22.211  0.00  0.00     0.126 A 
ATOM      9  C           0      39.721   3.307  24.388  0.00  0.00     0.201 C 
ATOM     10  C           0      40.486   3.437  20.368  0.00  0.00     0.048 A 
ATOM     11  C           0      38.119   3.168  19.961  0.00  0.00     0.146 A 
ATOM     12  C           0      42.610   3.915  22.129  0.00  0.00     0.114 A 
ATOM     13  C           0      39.426   3.225  19.479  0.00  0.00     0.062 A 
ATOM     14  C           0      40.760   5.617  24.227  0.00  0.00     0.035 C 
ATOM     15  C           0      41.879   3.508  19.853  0.00  0.00     0.202 A 
ATOM     16  C           0      42.957   3.764  20.845  0.00  0.00     0.104 A 
ENDROOT
BRANCH   6  17
ATOM     17  N           0      36.550   3.244  21.788  0.00  0.00    -0.373 N 
ATOM     18  C           0      36.289   3.014  23.212  0.00  0.00     0.153 C 
ATOM     19  C           0      34.877   3.475  23.582  0.00  0.00     0.291 C 
ATOM     20  N           0      33.873   2.854  22.708  0.00  0.00     0.087 N 
ATOM     21  C           0      34.132   3.223  21.311  0.00  0.00     0.291 C 
ATOM     22  C           0      32.526   3.260  23.105  0.00  0.00     0.310 C 
ATOM     23  C           0      35.518   2.753  20.866  0.00  0.00     0.153 C 
ENDBRANCH   6  17
BRANCH  16  24
ATOM     24  C           0      44.373   3.870  20.490  0.00  0.00     0.181 C 
ATOM     25  O           0      45.132   4.718  20.925  0.00  0.00    -0.646 OA
BRANCH  24  26
ATOM     26  O           0      44.698   2.893  19.618  0.00  0.00    -0.772 OA
ATOM     27  H           0      43.904   2.474  19.222  0.00  0.00     0.167 HD
ENDBRANCH  24  26
ENDBRANCH  16  24
TORSDOF 3
