REMARK  3 active torsions:
REMARK  status: ('A' for Active; 'I' for Inactive)
REMARK    1  A    between atoms: O_4  and  C_26 
REMARK    2  A    between atoms: N_6  and  C_12 
REMARK    3  A    between atoms: C_25  and  C_26 
ROOT
ATOM      1  F           0      36.969   3.403  18.903  0.00  0.00    -0.204 F 
ATOM      2  O           0      38.544   2.658  23.303  0.00  0.00    -0.344 OA
ATOM      3  O           0      41.969   2.931  18.359  0.00  0.00    -0.286 OA
ATOM      4  N           0      41.254   2.580  22.353  0.00  0.00    -0.346 N 
ATOM      5  C           0      40.949   2.568  23.786  0.00  0.00     0.110 C 
ATOM      6  C           0      37.768   3.041  21.109  0.00  0.00     0.105 A 
ATOM      7  C           0      40.157   2.759  21.485  0.00  0.00     0.085 A 
ATOM      8  C           0      38.841   2.809  21.970  0.00  0.00     0.126 A 
ATOM      9  C           0      39.569   1.946  24.002  0.00  0.00     0.201 C 
ATOM     10  C           0      40.365   2.899  20.100  0.00  0.00     0.048 A 
ATOM     11  C           0      37.994   3.189  19.741  0.00  0.00     0.146 A 
ATOM     12  C           0      42.533   2.526  21.835  0.00  0.00     0.114 A 
ATOM     13  C           0      39.289   3.112  19.232  0.00  0.00     0.062 A 
ATOM     14  C           0      41.036   3.987  24.354  0.00  0.00     0.035 C 
ATOM     15  C           0      41.749   2.828  19.559  0.00  0.00     0.202 A 
ATOM     16  C           0      42.851   2.627  20.538  0.00  0.00     0.104 A 
ENDROOT
BRANCH   6  17
ATOM     17  N           0      36.459   3.115  21.597  0.00  0.00    -0.373 N 
ATOM     18  C           0      35.343   3.296  20.663  0.00  0.00     0.153 C 
ATOM     19  C           0      34.027   2.850  21.305  0.00  0.00     0.291 C 
ATOM     20  N           0      33.812   3.524  22.592  0.00  0.00     0.087 N 
ATOM     21  C           0      34.910   3.204  23.512  0.00  0.00     0.291 C 
ATOM     22  C           0      32.528   3.130  23.170  0.00  0.00     0.310 C 
ATOM     23  C           0      36.255   3.663  22.944  0.00  0.00     0.153 C 
ENDBRANCH   6  17
BRANCH  16  24
ATOM     24  C           0      44.263   2.547  20.160  0.00  0.00     0.181 C 
ATOM     25  O           0      45.119   1.970  20.807  0.00  0.00    -0.646 OA
BRANCH  24  26
ATOM     26  O           0      44.460   3.204  18.998  0.00  0.00    -0.772 OA
ATOM     27  H           0      43.895   2.856  18.276  0.00  0.00     0.167 HD
ENDBRANCH  24  26
ENDBRANCH  16  24
TORSDOF 3
