REMARK  3 active torsions:
REMARK  status: ('A' for Active; 'I' for Inactive)
REMARK    1  A    between atoms: O_4  and  C_26 
REMARK    2  A    between atoms: N_6  and  C_12 
REMARK    3  A    between atoms: C_25  and  C_26 
ROOT
ATOM      1  F           0      37.005   2.881  19.302  0.00  0.00    -0.204 F 
ATOM      2  O           0      38.648   3.778  23.648  0.00  0.00    -0.344 OA
ATOM      3  O           0      41.994   3.340  18.663  0.00  0.00    -0.286 OA
ATOM      4  N           0      41.322   4.005  22.624  0.00  0.00    -0.346 N 
ATOM      5  C           0      41.009   4.340  24.016  0.00  0.00     0.110 C 
ATOM      6  C           0      37.835   3.344  21.477  0.00  0.00     0.105 A 
ATOM      7  C           0      40.223   3.692  21.797  0.00  0.00     0.085 A 
ATOM      8  C           0      38.922   3.600  22.314  0.00  0.00     0.126 A 
ATOM      9  C           0      39.794   3.529  24.468  0.00  0.00     0.201 C 
ATOM     10  C           0      40.414   3.470  20.421  0.00  0.00     0.048 A 
ATOM     11  C           0      38.041   3.138  20.114  0.00  0.00     0.146 A 
ATOM     12  C           0      42.589   4.076  22.079  0.00  0.00     0.114 A 
ATOM     13  C           0      39.328   3.194  19.582  0.00  0.00     0.062 A 
ATOM     14  C           0      40.779   5.847  24.155  0.00  0.00     0.035 C 
ATOM     15  C           0      41.786   3.541  19.853  0.00  0.00     0.202 A 
ATOM     16  C           0      42.894   3.867  20.792  0.00  0.00     0.104 A 
ENDROOT
BRANCH   6  17
ATOM     17  N           0      36.535   3.277  21.990  0.00  0.00    -0.373 N 
ATOM     18  C           0      36.310   2.742  23.336  0.00  0.00     0.153 C 
ATOM     19  C           0      34.961   3.214  23.885  0.00  0.00     0.291 C 
ATOM     20  N           0      33.872   2.897  22.953  0.00  0.00     0.087 N 
ATOM     21  C           0      34.108   3.561  21.665  0.00  0.00     0.291 C 
ATOM     22  C           0      32.584   3.305  23.511  0.00  0.00     0.310 C 
ATOM     23  C           0      35.428   3.098  21.042  0.00  0.00     0.153 C 
ENDBRANCH   6  17
BRANCH  16  24
ATOM     24  C           0      44.294   3.981  20.381  0.00  0.00     0.181 C 
ATOM     25  O           0      45.073   4.815  20.809  0.00  0.00    -0.646 OA
BRANCH  24  26
ATOM     26  O           0      44.579   3.030  19.468  0.00  0.00    -0.772 OA
ATOM     27  H           0      43.802   2.464  19.270  0.00  0.00     0.167 HD
ENDBRANCH  24  26
ENDBRANCH  16  24
TORSDOF 3
