REMARK  5 active torsions:
REMARK  status: ('A' for Active; 'I' for Inactive)
REMARK    1  A    between atoms: O_2  and  C_14 
REMARK    2  A    between atoms: O_4  and  C_26 
REMARK    3  A    between atoms: N_6  and  C_9 
REMARK    4  A    between atoms: N_7  and  C_16 
REMARK    5  A    between atoms: C_21  and  C_26 
ROOT
ATOM      1  F           0       1.806  -3.014   0.084  0.00  0.00    -0.204 F 
ATOM      2  O           0      -3.208  -2.593   0.213  0.00  0.00    -0.286 OA
ATOM      3  N           0      -1.826   1.222  -0.187  0.00  0.00    -0.348 N 
ATOM      4  C           0      -0.877   0.163  -0.121  0.00  0.00     0.085 A 
ATOM      5  C           0      -3.175   0.934  -0.115  0.00  0.00     0.114 A 
ATOM      6  C           0       0.509   0.383  -0.189  0.00  0.00     0.125 A 
ATOM      7  C           0      -1.327  -1.168   0.018  0.00  0.00     0.048 A 
ATOM      8  C           0       1.411  -0.683  -0.120  0.00  0.00     0.105 A 
ATOM      9  C           0      -3.707  -0.288   0.017  0.00  0.00     0.104 A 
ATOM     10  C           0      -2.785  -1.450   0.094  0.00  0.00     0.202 A 
ATOM     11  C           0      -0.423  -2.235   0.087  0.00  0.00     0.062 A 
ATOM     12  C           0       0.946  -1.987   0.018  0.00  0.00     0.146 A 
ENDROOT
BRANCH   8  13
ATOM     13  N           0       2.790  -0.456  -0.188  0.00  0.00    -0.372 N 
ATOM     14  C           0       3.514  -0.215   1.069  0.00  0.00     0.158 C 
ATOM     15  C           0       4.835   0.518   0.794  0.00  0.00     0.234 C 
ATOM     16  N           0       5.631  -0.203  -0.206  0.00  0.00     0.090 N 
ATOM     17  C           0       5.651   0.654   2.079  0.00  0.00     0.044 C 
ATOM     18  C           0       4.890  -0.316  -1.461  0.00  0.00     0.289 C 
ATOM     19  H           0       5.845  -1.138   0.143  0.00  0.00     0.316 HD
ATOM     20  C           0       3.574  -1.067  -1.266  0.00  0.00     0.153 C 
ENDBRANCH   8  13
BRANCH   6  21
ATOM     21  O           0       1.047   1.632  -0.323  0.00  0.00    -0.351 OA
ATOM     22  C           0       1.258   2.103  -1.651  0.00  0.00     0.210 C 
ENDBRANCH   6  21
BRANCH   3  23
ATOM     23  C           0      -1.458   2.650  -0.333  0.00  0.00     0.090 A 
ATOM     24  C           0      -1.959   3.668   0.634  0.00  0.00     0.028 A 
ATOM     25  C           0      -0.506   3.292   0.619  0.00  0.00     0.028 A 
ENDBRANCH   3  23
BRANCH   9  26
ATOM     26  C           0      -5.164  -0.410   0.078  0.00  0.00     0.181 C 
ATOM     27  O           0      -5.945   0.347  -0.471  0.00  0.00    -0.646 OA
BRANCH  26  28
ATOM     28  O           0      -5.499  -1.482   0.828  0.00  0.00    -0.772 OA
ATOM     29  H           0      -6.471  -1.597   0.892  0.00  0.00     0.167 HD
ENDBRANCH  26  28
ENDBRANCH   9  26
TORSDOF 5
