REMARK  5 active torsions:
REMARK  status: ('A' for Active; 'I' for Inactive)
REMARK    1  A    between atoms: O_2  and  C_14 
REMARK    2  A    between atoms: O_4  and  C_26 
REMARK    3  A    between atoms: N_6  and  C_9 
REMARK    4  A    between atoms: N_7  and  C_16 
REMARK    5  A    between atoms: C_21  and  C_26 
ROOT
ATOM      1  F           0      39.672   5.319  26.082  0.00  0.00    -0.204 F 
ATOM      2  O           0      43.022   7.321  22.903  0.00  0.00    -0.286 OA
ATOM      3  N           0      41.447   4.125  20.921  0.00  0.00    -0.348 N 
ATOM      4  C           0      40.975   4.405  22.234  0.00  0.00     0.085 A 
ATOM      5  C           0      42.415   4.934  20.357  0.00  0.00     0.114 A 
ATOM      6  C           0      39.992   3.626  22.868  0.00  0.00     0.125 A 
ATOM      7  C           0      41.503   5.505  22.944  0.00  0.00     0.048 A 
ATOM      8  C           0      39.554   3.931  24.160  0.00  0.00     0.105 A 
ATOM      9  C           0      42.981   5.998  20.941  0.00  0.00     0.104 A 
ATOM     10  C           0      42.545   6.359  22.315  0.00  0.00     0.202 A 
ATOM     11  C           0      41.064   5.811  24.238  0.00  0.00     0.062 A 
ATOM     12  C           0      40.089   5.020  24.842  0.00  0.00     0.146 A 
ENDROOT
BRANCH   8  13
ATOM     13  N           0      38.576   3.150  24.785  0.00  0.00    -0.372 N 
ATOM     14  C           0      37.175   3.347  24.384  0.00  0.00     0.158 C 
ATOM     15  C           0      36.228   2.842  25.483  0.00  0.00     0.234 C 
ATOM     16  N           0      36.541   1.454  25.841  0.00  0.00     0.090 N 
ATOM     17  C           0      34.774   2.923  25.018  0.00  0.00     0.044 C 
ATOM     18  C           0      37.916   1.352  26.327  0.00  0.00     0.289 C 
ATOM     19  H           0      36.430   0.860  25.019  0.00  0.00     0.316 HD
ATOM     20  C           0      38.917   1.809  25.267  0.00  0.00     0.153 C 
ENDBRANCH   8  13
BRANCH   6  21
ATOM     21  O           0      39.418   2.541  22.268  0.00  0.00    -0.351 OA
ATOM     22  C           0      38.163   2.749  21.626  0.00  0.00     0.210 C 
ENDBRANCH   6  21
BRANCH   3  23
ATOM     23  C           0      40.958   2.998  20.093  0.00  0.00     0.090 A 
ATOM     24  C           0      39.953   3.224  19.015  0.00  0.00     0.028 A 
ATOM     25  C           0      41.368   2.868  18.664  0.00  0.00     0.028 A 
ENDBRANCH   3  23
BRANCH   9  26
ATOM     26  C           0      43.995   6.744  20.196  0.00  0.00     0.181 C 
ATOM     27  O           0      43.842   7.182  19.069  0.00  0.00    -0.646 OA
BRANCH  26  28
ATOM     28  O           0      45.111   6.868  20.947  0.00  0.00    -0.772 OA
ATOM     29  H           0      44.908   7.162  21.860  0.00  0.00     0.167 HD
ENDBRANCH  26  28
ENDBRANCH   9  26
TORSDOF 5
