REMARK  5 active torsions:
REMARK  status: ('A' for Active; 'I' for Inactive)
REMARK    1  A    between atoms: O_2  and  C_14 
REMARK    2  A    between atoms: O_4  and  C_26 
REMARK    3  A    between atoms: N_6  and  C_9 
REMARK    4  A    between atoms: N_7  and  C_16 
REMARK    5  A    between atoms: C_21  and  C_26 
ROOT
ATOM      1  F           0      36.610   2.271  20.596  0.00  0.00    -0.204 F 
ATOM      2  O           0      41.113   3.152  18.527  0.00  0.00    -0.286 OA
ATOM      3  N           0      41.368   4.641  22.314  0.00  0.00    -0.348 N 
ATOM      4  C           0      40.143   4.042  21.905  0.00  0.00     0.085 A 
ATOM      5  C           0      42.426   4.701  21.429  0.00  0.00     0.114 A 
ATOM      6  C           0      39.026   3.946  22.752  0.00  0.00     0.125 A 
ATOM      7  C           0      40.026   3.519  20.599  0.00  0.00     0.048 A 
ATOM      8  C           0      37.839   3.352  22.314  0.00  0.00     0.105 A 
ATOM      9  C           0      42.422   4.237  20.173  0.00  0.00     0.104 A 
ATOM     10  C           0      41.181   3.598  19.666  0.00  0.00     0.202 A 
ATOM     11  C           0      38.837   2.923  20.161  0.00  0.00     0.062 A 
ATOM     12  C           0      37.745   2.843  21.022  0.00  0.00     0.146 A 
ENDROOT
BRANCH   8  13
ATOM     13  N           0      36.731   3.260  23.164  0.00  0.00    -0.372 N 
ATOM     14  C           0      35.404   3.555  22.604  0.00  0.00     0.158 C 
ATOM     15  C           0      34.421   3.925  23.724  0.00  0.00     0.234 C 
ATOM     16  N           0      34.397   2.886  24.759  0.00  0.00     0.090 N 
ATOM     17  C           0      33.011   4.105  23.163  0.00  0.00     0.044 C 
ATOM     18  C           0      35.727   2.718  25.342  0.00  0.00     0.289 C 
ATOM     19  H           0      34.098   2.002  24.344  0.00  0.00     0.316 HD
ATOM     20  C           0      36.753   2.315  24.285  0.00  0.00     0.153 C 
ENDBRANCH   8  13
BRANCH   6  21
ATOM     21  O           0      39.036   4.422  24.033  0.00  0.00    -0.351 OA
ATOM     22  C           0      39.447   3.516  25.053  0.00  0.00     0.210 C 
ENDBRANCH   6  21
BRANCH   3  23
ATOM     23  C           0      41.593   5.218  23.661  0.00  0.00     0.090 A 
ATOM     24  C           0      42.617   6.281  23.872  0.00  0.00     0.028 A 
ATOM     25  C           0      41.156   6.609  23.975  0.00  0.00     0.028 A 
ENDBRANCH   3  23
BRANCH   9  26
ATOM     26  C           0      43.637   4.386  19.372  0.00  0.00     0.181 C 
ATOM     27  O           0      44.335   5.385  19.353  0.00  0.00    -0.646 OA
BRANCH  26  28
ATOM     28  O           0      43.859   3.255  18.668  0.00  0.00    -0.772 OA
ATOM     29  H           0      43.175   2.574  18.842  0.00  0.00     0.167 HD
ENDBRANCH  26  28
ENDBRANCH   9  26
TORSDOF 5
