REMARK  5 active torsions:
REMARK  status: ('A' for Active; 'I' for Inactive)
REMARK    1  A    between atoms: O_2  and  C_14 
REMARK    2  A    between atoms: O_4  and  C_26 
REMARK    3  A    between atoms: N_6  and  C_9 
REMARK    4  A    between atoms: N_7  and  C_16 
REMARK    5  A    between atoms: C_21  and  C_26 
ROOT
ATOM      1  F           0      36.370   2.474  20.339  0.00  0.00    -0.204 F 
ATOM      2  O           0      40.985   3.233  18.481  0.00  0.00    -0.286 OA
ATOM      3  N           0      41.177   4.478  22.359  0.00  0.00    -0.348 N 
ATOM      4  C           0      39.939   3.972  21.872  0.00  0.00     0.085 A 
ATOM      5  C           0      42.270   4.534  21.515  0.00  0.00     0.114 A 
ATOM      6  C           0      38.789   3.886  22.674  0.00  0.00     0.125 A 
ATOM      7  C           0      39.843   3.534  20.533  0.00  0.00     0.048 A 
ATOM      8  C           0      37.589   3.383  22.161  0.00  0.00     0.105 A 
ATOM      9  C           0      42.287   4.147  20.233  0.00  0.00     0.104 A 
ATOM     10  C           0      41.034   3.606  19.646  0.00  0.00     0.202 A 
ATOM     11  C           0      38.642   3.031  20.020  0.00  0.00     0.062 A 
ATOM     12  C           0      37.517   2.958  20.838  0.00  0.00     0.146 A 
ENDROOT
BRANCH   8  13
ATOM     13  N           0      36.448   3.300  22.966  0.00  0.00    -0.372 N 
ATOM     14  C           0      35.144   3.587  22.348  0.00  0.00     0.158 C 
ATOM     15  C           0      34.116   3.970  23.423  0.00  0.00     0.234 C 
ATOM     16  N           0      34.050   2.943  24.469  0.00  0.00     0.090 N 
ATOM     17  C           0      32.730   4.141  22.802  0.00  0.00     0.044 C 
ATOM     18  C           0      35.355   2.784  25.108  0.00  0.00     0.289 C 
ATOM     19  H           0      33.770   2.055  24.053  0.00  0.00     0.316 HD
ATOM     20  C           0      36.424   2.369  24.098  0.00  0.00     0.153 C 
ENDBRANCH   8  13
BRANCH   6  21
ATOM     21  O           0      38.776   4.283  23.982  0.00  0.00    -0.351 OA
ATOM     22  C           0      39.122   3.302  24.956  0.00  0.00     0.210 C 
ENDBRANCH   6  21
BRANCH   3  23
ATOM     23  C           0      41.382   4.961  23.745  0.00  0.00     0.090 A 
ATOM     24  C           0      42.346   6.061  24.033  0.00  0.00     0.028 A 
ATOM     25  C           0      40.870   6.296  24.169  0.00  0.00     0.028 A 
ENDBRANCH   3  23
BRANCH   9  26
ATOM     26  C           0      43.537   4.278  19.483  0.00  0.00     0.181 C 
ATOM     27  O           0      44.314   5.210  19.592  0.00  0.00    -0.646 OA
BRANCH  26  28
ATOM     28  O           0      43.690   3.214  18.666  0.00  0.00    -0.772 OA
ATOM     29  H           0      43.010   2.526  18.826  0.00  0.00     0.167 HD
ENDBRANCH  26  28
ENDBRANCH   9  26
TORSDOF 5
