REMARK  5 active torsions:
REMARK  status: ('A' for Active; 'I' for Inactive)
REMARK    1  A    between atoms: O_2  and  C_14 
REMARK    2  A    between atoms: O_4  and  C_26 
REMARK    3  A    between atoms: N_6  and  C_9 
REMARK    4  A    between atoms: N_7  and  C_16 
REMARK    5  A    between atoms: C_21  and  C_26 
ROOT
ATOM      1  F           0      36.759   2.107  20.901  0.00  0.00    -0.204 F 
ATOM      2  O           0      41.106   3.161  18.594  0.00  0.00    -0.286 OA
ATOM      3  N           0      41.481   4.720  22.343  0.00  0.00    -0.348 N 
ATOM      4  C           0      40.266   4.060  22.004  0.00  0.00     0.085 A 
ATOM      5  C           0      42.490   4.815  21.405  0.00  0.00     0.114 A 
ATOM      6  C           0      39.200   3.925  22.909  0.00  0.00     0.125 A 
ATOM      7  C           0      40.109   3.511  20.713  0.00  0.00     0.048 A 
ATOM      8  C           0      38.021   3.270  22.540  0.00  0.00     0.105 A 
ATOM      9  C           0      42.444   4.332  20.157  0.00  0.00     0.104 A 
ATOM     10  C           0      41.211   3.628  19.722  0.00  0.00     0.202 A 
ATOM     11  C           0      38.928   2.854  20.344  0.00  0.00     0.062 A 
ATOM     12  C           0      37.887   2.737  21.261  0.00  0.00     0.146 A 
ENDROOT
BRANCH   8  13
ATOM     13  N           0      36.963   3.141  23.446  0.00  0.00    -0.372 N 
ATOM     14  C           0      35.591   3.250  22.927  0.00  0.00     0.158 C 
ATOM     15  C           0      34.619   3.615  24.058  0.00  0.00     0.234 C 
ATOM     16  N           0      34.744   2.672  25.176  0.00  0.00     0.090 N 
ATOM     17  C           0      33.177   3.600  23.552  0.00  0.00     0.044 C 
ATOM     18  C           0      36.106   2.691  25.707  0.00  0.00     0.289 C 
ATOM     19  H           0      34.524   1.730  24.850  0.00  0.00     0.316 HD
ATOM     20  C           0      37.127   2.304  24.639  0.00  0.00     0.153 C 
ENDBRANCH   8  13
BRANCH   6  21
ATOM     21  O           0      39.251   4.421  24.181  0.00  0.00    -0.351 OA
ATOM     22  C           0      39.916   3.623  25.157  0.00  0.00     0.210 C 
ENDBRANCH   6  21
BRANCH   3  23
ATOM     23  C           0      41.746   5.328  23.668  0.00  0.00     0.090 A 
ATOM     24  C           0      42.628   6.524  23.795  0.00  0.00     0.028 A 
ATOM     25  C           0      41.151   6.646  24.034  0.00  0.00     0.028 A 
ENDBRANCH   3  23
BRANCH   9  26
ATOM     26  C           0      43.609   4.524  19.292  0.00  0.00     0.181 C 
ATOM     27  O           0      44.224   5.570  19.183  0.00  0.00    -0.646 OA
BRANCH  26  28
ATOM     28  O           0      43.891   3.372  18.647  0.00  0.00    -0.772 OA
ATOM     29  H           0      43.180   2.705  18.757  0.00  0.00     0.167 HD
ENDBRANCH  26  28
ENDBRANCH   9  26
TORSDOF 5
