REMARK  5 active torsions:
REMARK  status: ('A' for Active; 'I' for Inactive)
REMARK    1  A    between atoms: O_2  and  C_14 
REMARK    2  A    between atoms: O_4  and  C_26 
REMARK    3  A    between atoms: N_6  and  C_9 
REMARK    4  A    between atoms: N_7  and  C_16 
REMARK    5  A    between atoms: C_21  and  C_26 
ROOT
ATOM      1  F           0      39.192   3.207  18.546  0.00  0.00    -0.204 F 
ATOM      2  O           0      34.774   3.300  20.956  0.00  0.00    -0.286 OA
ATOM      3  N           0      37.593   3.149  23.898  0.00  0.00    -0.348 N 
ATOM      4  C           0      38.030   3.163  22.543  0.00  0.00     0.085 A 
ATOM      5  C           0      36.241   3.186  24.178  0.00  0.00     0.114 A 
ATOM      6  C           0      39.388   3.128  22.186  0.00  0.00     0.125 A 
ATOM      7  C           0      37.076   3.214  21.504  0.00  0.00     0.048 A 
ATOM      8  C           0      39.780   3.142  20.844  0.00  0.00     0.105 A 
ATOM      9  C           0      35.256   3.236  23.272  0.00  0.00     0.104 A 
ATOM     10  C           0      35.627   3.253  21.834  0.00  0.00     0.202 A 
ATOM     11  C           0      37.469   3.229  20.160  0.00  0.00     0.062 A 
ATOM     12  C           0      38.823   3.192  19.835  0.00  0.00     0.146 A 
ENDROOT
BRANCH   8  13
ATOM     13  N           0      41.134   3.107  20.495  0.00  0.00    -0.372 N 
ATOM     14  C           0      41.904   1.900  20.834  0.00  0.00     0.158 C 
ATOM     15  C           0      43.405   2.218  20.880  0.00  0.00     0.234 C 
ATOM     16  N           0      43.841   2.854  19.631  0.00  0.00     0.090 N 
ATOM     17  C           0      44.218   0.943  21.101  0.00  0.00     0.044 C 
ATOM     18  C           0      43.106   4.098  19.410  0.00  0.00     0.289 C 
ATOM     19  H           0      43.667   2.219  18.850  0.00  0.00     0.316 HD
ATOM     20  C           0      41.602   3.850  19.321  0.00  0.00     0.153 C 
ENDBRANCH   8  13
BRANCH   6  21
ATOM     21  O           0      40.389   3.077  23.114  0.00  0.00    -0.351 OA
ATOM     22  C           0      41.016   4.310  23.454  0.00  0.00     0.210 C 
ENDBRANCH   6  21
BRANCH   3  23
ATOM     23  C           0      38.511   3.097  25.060  0.00  0.00     0.090 A 
ATOM     24  C           0      37.994   2.806  26.427  0.00  0.00     0.028 A 
ATOM     25  C           0      38.842   1.796  25.711  0.00  0.00     0.028 A 
ENDBRANCH   3  23
BRANCH   9  26
ATOM     26  C           0      33.873   3.270  23.748  0.00  0.00     0.181 C 
ATOM     27  O           0      33.399   2.488  24.554  0.00  0.00    -0.646 OA
BRANCH  26  28
ATOM     28  O           0      33.215   4.293  23.162  0.00  0.00    -0.772 OA
ATOM     29  H           0      33.248   4.238  22.183  0.00  0.00     0.167 HD
ENDBRANCH  26  28
ENDBRANCH   9  26
TORSDOF 5
