REMARK  5 active torsions:
REMARK  status: ('A' for Active; 'I' for Inactive)
REMARK    1  A    between atoms: O_2  and  C_14 
REMARK    2  A    between atoms: O_4  and  C_26 
REMARK    3  A    between atoms: N_6  and  C_9 
REMARK    4  A    between atoms: N_7  and  C_16 
REMARK    5  A    between atoms: C_21  and  C_26 
ROOT
ATOM      1  F           0      36.233   2.480  20.117  0.00  0.00    -0.204 F 
ATOM      2  O           0      40.865   3.216  18.292  0.00  0.00    -0.286 OA
ATOM      3  N           0      41.063   4.361  22.200  0.00  0.00    -0.348 N 
ATOM      4  C           0      39.819   3.886  21.697  0.00  0.00     0.085 A 
ATOM      5  C           0      42.159   4.422  21.361  0.00  0.00     0.114 A 
ATOM      6  C           0      38.665   3.797  22.494  0.00  0.00     0.125 A 
ATOM      7  C           0      39.721   3.483  20.348  0.00  0.00     0.048 A 
ATOM      8  C           0      37.460   3.325  21.964  0.00  0.00     0.105 A 
ATOM      9  C           0      42.175   4.067  20.070  0.00  0.00     0.104 A 
ATOM     10  C           0      40.916   3.559  19.466  0.00  0.00     0.202 A 
ATOM     11  C           0      38.514   3.011  19.818  0.00  0.00     0.062 A 
ATOM     12  C           0      37.385   2.934  20.631  0.00  0.00     0.146 A 
ENDROOT
BRANCH   8  13
ATOM     13  N           0      36.315   3.239  22.763  0.00  0.00    -0.372 N 
ATOM     14  C           0      35.004   3.259  22.097  0.00  0.00     0.158 C 
ATOM     15  C           0      33.908   3.688  23.085  0.00  0.00     0.234 C 
ATOM     16  N           0      33.936   2.848  24.288  0.00  0.00     0.090 N 
ATOM     17  C           0      32.529   3.584  22.434  0.00  0.00     0.044 C 
ATOM     18  C           0      35.233   2.957  24.954  0.00  0.00     0.289 C 
ATOM     19  H           0      33.773   1.876  24.025  0.00  0.00     0.316 HD
ATOM     20  C           0      36.370   2.513  24.036  0.00  0.00     0.153 C 
ENDBRANCH   8  13
BRANCH   6  21
ATOM     21  O           0      38.653   4.161  23.811  0.00  0.00    -0.351 OA
ATOM     22  C           0      39.132   3.201  24.749  0.00  0.00     0.210 C 
ENDBRANCH   6  21
BRANCH   3  23
ATOM     23  C           0      41.270   4.806  23.598  0.00  0.00     0.090 A 
ATOM     24  C           0      42.258   5.876  23.918  0.00  0.00     0.028 A 
ATOM     25  C           0      40.787   6.143  24.051  0.00  0.00     0.028 A 
ENDBRANCH   3  23
BRANCH   9  26
ATOM     26  C           0      43.429   4.198  19.328  0.00  0.00     0.181 C 
ATOM     27  O           0      44.088   5.220  19.257  0.00  0.00    -0.646 OA
BRANCH  26  28
ATOM     28  O           0      43.736   3.019  18.744  0.00  0.00    -0.772 OA
ATOM     29  H           0      42.937   2.539  18.441  0.00  0.00     0.167 HD
ENDBRANCH  26  28
ENDBRANCH   9  26
TORSDOF 5
