REMARK  5 active torsions:
REMARK  status: ('A' for Active; 'I' for Inactive)
REMARK    1  A    between atoms: O_2  and  C_14 
REMARK    2  A    between atoms: O_4  and  C_26 
REMARK    3  A    between atoms: N_6  and  C_9 
REMARK    4  A    between atoms: N_7  and  C_16 
REMARK    5  A    between atoms: C_21  and  C_26 
ROOT
ATOM      1  F           0      36.444   2.439  20.442  0.00  0.00    -0.204 F 
ATOM      2  O           0      41.038   3.221  18.540  0.00  0.00    -0.286 OA
ATOM      3  N           0      41.246   4.517  22.400  0.00  0.00    -0.348 N 
ATOM      4  C           0      40.009   3.992  21.929  0.00  0.00     0.085 A 
ATOM      5  C           0      42.331   4.573  21.548  0.00  0.00     0.114 A 
ATOM      6  C           0      38.866   3.904  22.741  0.00  0.00     0.125 A 
ATOM      7  C           0      39.908   3.536  20.597  0.00  0.00     0.048 A 
ATOM      8  C           0      37.668   3.383  22.243  0.00  0.00     0.105 A 
ATOM      9  C           0      42.344   4.170  20.271  0.00  0.00     0.104 A 
ATOM     10  C           0      41.092   3.609  19.700  0.00  0.00     0.202 A 
ATOM     11  C           0      38.708   3.015  20.098  0.00  0.00     0.062 A 
ATOM     12  C           0      37.590   2.940  20.926  0.00  0.00     0.146 A 
ENDROOT
BRANCH   8  13
ATOM     13  N           0      36.533   3.299  23.057  0.00  0.00    -0.372 N 
ATOM     14  C           0      35.217   3.502  22.433  0.00  0.00     0.158 C 
ATOM     15  C           0      34.179   3.901  23.491  0.00  0.00     0.234 C 
ATOM     16  N           0      34.157   2.929  24.590  0.00  0.00     0.090 N 
ATOM     17  C           0      32.785   3.985  22.870  0.00  0.00     0.044 C 
ATOM     18  C           0      35.469   2.854  25.229  0.00  0.00     0.289 C 
ATOM     19  H           0      33.909   2.009  24.223  0.00  0.00     0.316 HD
ATOM     20  C           0      36.549   2.428  24.237  0.00  0.00     0.153 C 
ENDBRANCH   8  13
BRANCH   6  21
ATOM     21  O           0      38.858   4.317  24.043  0.00  0.00    -0.351 OA
ATOM     22  C           0      39.205   3.348  25.029  0.00  0.00     0.210 C 
ENDBRANCH   6  21
BRANCH   3  23
ATOM     23  C           0      41.456   5.019  23.778  0.00  0.00     0.090 A 
ATOM     24  C           0      42.270   6.243  24.027  0.00  0.00     0.028 A 
ATOM     25  C           0      40.785   6.267  24.245  0.00  0.00     0.028 A 
ENDBRANCH   3  23
BRANCH   9  26
ATOM     26  C           0      43.587   4.304  19.510  0.00  0.00     0.181 C 
ATOM     27  O           0      44.351   3.387  19.266  0.00  0.00    -0.646 OA
BRANCH  26  28
ATOM     28  O           0      43.748   5.589  19.126  0.00  0.00    -0.772 OA
ATOM     29  H           0      42.944   6.126  19.293  0.00  0.00     0.167 HD
ENDBRANCH  26  28
ENDBRANCH   9  26
TORSDOF 5
