REMARK  5 active torsions:
REMARK  status: ('A' for Active; 'I' for Inactive)
REMARK    1  A    between atoms: O_2  and  C_14 
REMARK    2  A    between atoms: O_4  and  C_26 
REMARK    3  A    between atoms: N_6  and  C_9 
REMARK    4  A    between atoms: N_7  and  C_16 
REMARK    5  A    between atoms: C_21  and  C_26 
ROOT
ATOM      1  F           0      36.494   2.177  20.802  0.00  0.00    -0.204 F 
ATOM      2  O           0      40.930   3.103  18.612  0.00  0.00    -0.286 OA
ATOM      3  N           0      41.277   4.586  22.394  0.00  0.00    -0.348 N 
ATOM      4  C           0      40.046   3.977  22.017  0.00  0.00     0.085 A 
ATOM      5  C           0      42.310   4.658  21.481  0.00  0.00     0.114 A 
ATOM      6  C           0      38.955   3.869  22.895  0.00  0.00     0.125 A 
ATOM      7  C           0      39.898   3.456  20.714  0.00  0.00     0.048 A 
ATOM      8  C           0      37.761   3.265  22.488  0.00  0.00     0.105 A 
ATOM      9  C           0      42.275   4.197  20.224  0.00  0.00     0.104 A 
ATOM     10  C           0      41.026   3.547  19.749  0.00  0.00     0.202 A 
ATOM     11  C           0      38.702   2.851  20.307  0.00  0.00     0.062 A 
ATOM     12  C           0      37.636   2.758  21.198  0.00  0.00     0.146 A 
ENDROOT
BRANCH   8  13
ATOM     13  N           0      36.678   3.161  23.368  0.00  0.00    -0.372 N 
ATOM     14  C           0      35.321   3.233  22.806  0.00  0.00     0.158 C 
ATOM     15  C           0      34.313   3.633  23.893  0.00  0.00     0.234 C 
ATOM     16  N           0      34.415   2.739  25.051  0.00  0.00     0.090 N 
ATOM     17  C           0      32.886   3.582  23.346  0.00  0.00     0.044 C 
ATOM     18  C           0      35.760   2.795  25.620  0.00  0.00     0.289 C 
ATOM     19  H           0      34.214   1.782  24.758  0.00  0.00     0.316 HD
ATOM     20  C           0      36.816   2.375  24.599  0.00  0.00     0.153 C 
ENDBRANCH   8  13
BRANCH   6  21
ATOM     21  O           0      38.995   4.341  24.177  0.00  0.00    -0.351 OA
ATOM     22  C           0      39.507   3.460  25.172  0.00  0.00     0.210 C 
ENDBRANCH   6  21
BRANCH   3  23
ATOM     23  C           0      41.534   5.162  23.735  0.00  0.00     0.090 A 
ATOM     24  C           0      42.597   6.188  23.932  0.00  0.00     0.028 A 
ATOM     25  C           0      41.149   6.569  24.046  0.00  0.00     0.028 A 
ENDBRANCH   3  23
BRANCH   9  26
ATOM     26  C           0      43.466   4.359  19.389  0.00  0.00     0.181 C 
ATOM     27  O           0      44.160   5.360  19.362  0.00  0.00    -0.646 OA
BRANCH  26  28
ATOM     28  O           0      43.670   3.236  18.667  0.00  0.00    -0.772 OA
ATOM     29  H           0      43.017   2.537  18.881  0.00  0.00     0.167 HD
ENDBRANCH  26  28
ENDBRANCH   9  26
TORSDOF 5
