REMARK  5 active torsions:
REMARK  status: ('A' for Active; 'I' for Inactive)
REMARK    1  A    between atoms: O_2  and  C_14 
REMARK    2  A    between atoms: O_4  and  C_26 
REMARK    3  A    between atoms: N_6  and  C_9 
REMARK    4  A    between atoms: N_7  and  C_16 
REMARK    5  A    between atoms: C_21  and  C_26 
ROOT
ATOM      1  F           0      36.542   2.084  21.039  0.00  0.00    -0.204 F 
ATOM      2  O           0      40.839   3.172  18.655  0.00  0.00    -0.286 OA
ATOM      3  N           0      41.280   4.708  22.406  0.00  0.00    -0.348 N 
ATOM      4  C           0      40.062   4.045  22.087  0.00  0.00     0.085 A 
ATOM      5  C           0      42.271   4.813  21.449  0.00  0.00     0.114 A 
ATOM      6  C           0      39.014   3.900  23.011  0.00  0.00     0.125 A 
ATOM      7  C           0      39.882   3.503  20.795  0.00  0.00     0.048 A 
ATOM      8  C           0      37.831   3.243  22.660  0.00  0.00     0.105 A 
ATOM      9  C           0      42.203   4.338  20.199  0.00  0.00     0.104 A 
ATOM     10  C           0      40.964   3.631  19.784  0.00  0.00     0.202 A 
ATOM     11  C           0      38.697   2.845  20.445  0.00  0.00     0.062 A 
ATOM     12  C           0      37.674   2.717  21.381  0.00  0.00     0.146 A 
ENDROOT
BRANCH   8  13
ATOM     13  N           0      36.791   3.103  23.586  0.00  0.00    -0.372 N 
ATOM     14  C           0      37.127   2.634  24.938  0.00  0.00     0.158 C 
ATOM     15  C           0      35.887   2.043  25.624  0.00  0.00     0.234 C 
ATOM     16  N           0      34.774   2.999  25.600  0.00  0.00     0.090 N 
ATOM     17  C           0      36.199   1.675  27.074  0.00  0.00     0.044 C 
ATOM     18  C           0      34.427   3.342  24.222  0.00  0.00     0.289 C 
ATOM     19  H           0      35.047   3.847  26.099  0.00  0.00     0.316 HD
ATOM     20  C           0      35.611   3.968  23.488  0.00  0.00     0.153 C 
ENDBRANCH   8  13
BRANCH   6  21
ATOM     21  O           0      39.088   4.388  24.285  0.00  0.00    -0.351 OA
ATOM     22  C           0      39.765   3.581  25.245  0.00  0.00     0.210 C 
ENDBRANCH   6  21
BRANCH   3  23
ATOM     23  C           0      41.569   5.309  23.730  0.00  0.00     0.090 A 
ATOM     24  C           0      42.296   6.606  23.835  0.00  0.00     0.028 A 
ATOM     25  C           0      40.840   6.527  24.188  0.00  0.00     0.028 A 
ENDBRANCH   3  23
BRANCH   9  26
ATOM     26  C           0      43.350   4.540  19.314  0.00  0.00     0.181 C 
ATOM     27  O           0      43.925   5.603  19.158  0.00  0.00    -0.646 OA
BRANCH  26  28
ATOM     28  O           0      43.666   3.376  18.707  0.00  0.00    -0.772 OA
ATOM     29  H           0      42.915   2.745  18.707  0.00  0.00     0.167 HD
ENDBRANCH  26  28
ENDBRANCH   9  26
TORSDOF 5
