REMARK  5 active torsions:
REMARK  status: ('A' for Active; 'I' for Inactive)
REMARK    1  A    between atoms: O_2  and  C_14 
REMARK    2  A    between atoms: O_4  and  C_26 
REMARK    3  A    between atoms: N_6  and  C_9 
REMARK    4  A    between atoms: N_7  and  C_16 
REMARK    5  A    between atoms: C_21  and  C_26 
ROOT
ATOM      1  F           0      36.439   2.437  20.481  0.00  0.00    -0.204 F 
ATOM      2  O           0      41.015   3.216  18.536  0.00  0.00    -0.286 OA
ATOM      3  N           0      41.264   4.498  22.399  0.00  0.00    -0.348 N 
ATOM      4  C           0      40.022   3.977  21.938  0.00  0.00     0.085 A 
ATOM      5  C           0      42.342   4.555  21.536  0.00  0.00     0.114 A 
ATOM      6  C           0      38.887   3.889  22.761  0.00  0.00     0.125 A 
ATOM      7  C           0      39.907   3.526  20.605  0.00  0.00     0.048 A 
ATOM      8  C           0      37.683   3.372  22.273  0.00  0.00     0.105 A 
ATOM      9  C           0      42.340   4.156  20.257  0.00  0.00     0.104 A 
ATOM     10  C           0      41.082   3.600  19.697  0.00  0.00     0.202 A 
ATOM     11  C           0      38.701   3.009  20.117  0.00  0.00     0.062 A 
ATOM     12  C           0      37.591   2.934  20.955  0.00  0.00     0.146 A 
ENDROOT
BRANCH   8  13
ATOM     13  N           0      36.556   3.287  23.098  0.00  0.00    -0.372 N 
ATOM     14  C           0      35.232   3.452  22.480  0.00  0.00     0.158 C 
ATOM     15  C           0      34.195   3.858  23.537  0.00  0.00     0.234 C 
ATOM     16  N           0      34.198   2.913  24.659  0.00  0.00     0.090 N 
ATOM     17  C           0      32.795   3.903  22.925  0.00  0.00     0.044 C 
ATOM     18  C           0      35.517   2.876  25.289  0.00  0.00     0.289 C 
ATOM     19  H           0      33.964   1.980  24.316  0.00  0.00     0.316 HD
ATOM     20  C           0      36.597   2.446  24.298  0.00  0.00     0.153 C 
ENDBRANCH   8  13
BRANCH   6  21
ATOM     21  O           0      38.893   4.298  24.065  0.00  0.00    -0.351 OA
ATOM     22  C           0      39.301   3.340  25.038  0.00  0.00     0.210 C 
ENDBRANCH   6  21
BRANCH   3  23
ATOM     23  C           0      41.490   4.995  23.776  0.00  0.00     0.090 A 
ATOM     24  C           0      42.379   6.164  24.028  0.00  0.00     0.028 A 
ATOM     25  C           0      40.897   6.288  24.226  0.00  0.00     0.028 A 
ENDBRANCH   3  23
BRANCH   9  26
ATOM     26  C           0      43.576   4.290  19.485  0.00  0.00     0.181 C 
ATOM     27  O           0      44.355   5.222  19.583  0.00  0.00    -0.646 OA
BRANCH  26  28
ATOM     28  O           0      43.713   3.231  18.659  0.00  0.00    -0.772 OA
ATOM     29  H           0      43.053   2.530  18.847  0.00  0.00     0.167 HD
ENDBRANCH  26  28
ENDBRANCH   9  26
TORSDOF 5
