REMARK  5 active torsions:
REMARK  status: ('A' for Active; 'I' for Inactive)
REMARK    1  A    between atoms: O_2  and  C_14 
REMARK    2  A    between atoms: O_4  and  C_26 
REMARK    3  A    between atoms: N_6  and  C_9 
REMARK    4  A    between atoms: N_7  and  C_16 
REMARK    5  A    between atoms: C_21  and  C_26 
ROOT
ATOM      1  F           0      36.633   2.099  20.912  0.00  0.00    -0.204 F 
ATOM      2  O           0      40.993   3.151  18.627  0.00  0.00    -0.286 OA
ATOM      3  N           0      41.334   4.744  22.365  0.00  0.00    -0.348 N 
ATOM      4  C           0      40.125   4.076  22.023  0.00  0.00     0.085 A 
ATOM      5  C           0      42.349   4.835  21.433  0.00  0.00     0.114 A 
ATOM      6  C           0      39.052   3.945  22.921  0.00  0.00     0.125 A 
ATOM      7  C           0      39.978   3.515  20.736  0.00  0.00     0.048 A 
ATOM      8  C           0      37.879   3.282  22.549  0.00  0.00     0.105 A 
ATOM      9  C           0      42.314   4.340  20.188  0.00  0.00     0.104 A 
ATOM     10  C           0      41.087   3.627  19.751  0.00  0.00     0.202 A 
ATOM     11  C           0      38.803   2.851  20.364  0.00  0.00     0.062 A 
ATOM     12  C           0      37.755   2.737  21.275  0.00  0.00     0.146 A 
ENDROOT
BRANCH   8  13
ATOM     13  N           0      36.815   3.156  23.449  0.00  0.00    -0.372 N 
ATOM     14  C           0      35.446   3.250  22.919  0.00  0.00     0.158 C 
ATOM     15  C           0      34.463   3.622  24.038  0.00  0.00     0.234 C 
ATOM     16  N           0      34.586   2.694  25.168  0.00  0.00     0.090 N 
ATOM     17  C           0      33.025   3.591  23.521  0.00  0.00     0.044 C 
ATOM     18  C           0      35.944   2.729  25.709  0.00  0.00     0.289 C 
ATOM     19  H           0      34.375   1.747  24.852  0.00  0.00     0.316 HD
ATOM     20  C           0      36.975   2.335  24.653  0.00  0.00     0.153 C 
ENDBRANCH   8  13
BRANCH   6  21
ATOM     21  O           0      39.092   4.452  24.189  0.00  0.00    -0.351 OA
ATOM     22  C           0      39.656   3.619  25.198  0.00  0.00     0.210 C 
ENDBRANCH   6  21
BRANCH   3  23
ATOM     23  C           0      41.587   5.365  23.686  0.00  0.00     0.090 A 
ATOM     24  C           0      42.620   6.429  23.842  0.00  0.00     0.028 A 
ATOM     25  C           0      41.163   6.768  23.962  0.00  0.00     0.028 A 
ENDBRANCH   3  23
BRANCH   9  26
ATOM     26  C           0      43.485   4.530  19.331  0.00  0.00     0.181 C 
ATOM     27  O           0      44.116   5.568  19.241  0.00  0.00    -0.646 OA
BRANCH  26  28
ATOM     28  O           0      43.751   3.384  18.666  0.00  0.00    -0.772 OA
ATOM     29  H           0      43.087   2.687  18.854  0.00  0.00     0.167 HD
ENDBRANCH  26  28
ENDBRANCH   9  26
TORSDOF 5
