REMARK  5 active torsions:
REMARK  status: ('A' for Active; 'I' for Inactive)
REMARK    1  A    between atoms: O_2  and  C_14 
REMARK    2  A    between atoms: O_4  and  C_26 
REMARK    3  A    between atoms: N_6  and  C_9 
REMARK    4  A    between atoms: N_7  and  C_16 
REMARK    5  A    between atoms: C_21  and  C_26 
ROOT
ATOM      1  F           0      36.601   2.124  20.871  0.00  0.00    -0.204 F 
ATOM      2  O           0      40.968   3.147  18.586  0.00  0.00    -0.286 OA
ATOM      3  N           0      41.353   4.661  22.352  0.00  0.00    -0.348 N 
ATOM      4  C           0      40.131   4.020  22.003  0.00  0.00     0.085 A 
ATOM      5  C           0      42.365   4.753  21.417  0.00  0.00     0.114 A 
ATOM      6  C           0      39.060   3.890  22.903  0.00  0.00     0.125 A 
ATOM      7  C           0      39.969   3.486  20.706  0.00  0.00     0.048 A 
ATOM      8  C           0      37.874   3.253  22.524  0.00  0.00     0.105 A 
ATOM      9  C           0      42.317   4.283  20.163  0.00  0.00     0.104 A 
ATOM     10  C           0      41.075   3.600  19.718  0.00  0.00     0.202 A 
ATOM     11  C           0      38.781   2.849  20.327  0.00  0.00     0.062 A 
ATOM     12  C           0      37.736   2.736  21.240  0.00  0.00     0.146 A 
ENDROOT
BRANCH   8  13
ATOM     13  N           0      36.812   3.128  23.426  0.00  0.00    -0.372 N 
ATOM     14  C           0      35.443   3.243  22.903  0.00  0.00     0.158 C 
ATOM     15  C           0      34.468   3.612  24.030  0.00  0.00     0.234 C 
ATOM     16  N           0      34.585   2.668  25.148  0.00  0.00     0.090 N 
ATOM     17  C           0      33.028   3.604  23.518  0.00  0.00     0.044 C 
ATOM     18  C           0      35.945   2.681  25.684  0.00  0.00     0.289 C 
ATOM     19  H           0      34.362   1.727  24.821  0.00  0.00     0.316 HD
ATOM     20  C           0      36.968   2.290  24.620  0.00  0.00     0.153 C 
ENDBRANCH   8  13
BRANCH   6  21
ATOM     21  O           0      39.115   4.371  24.181  0.00  0.00    -0.351 OA
ATOM     22  C           0      39.596   3.481  25.184  0.00  0.00     0.210 C 
ENDBRANCH   6  21
BRANCH   3  23
ATOM     23  C           0      41.622   5.252  23.684  0.00  0.00     0.090 A 
ATOM     24  C           0      42.597   6.369  23.838  0.00  0.00     0.028 A 
ATOM     25  C           0      41.129   6.617  24.025  0.00  0.00     0.028 A 
ENDBRANCH   3  23
BRANCH   9  26
ATOM     26  C           0      43.486   4.470  19.304  0.00  0.00     0.181 C 
ATOM     27  O           0      44.098   5.517  19.186  0.00  0.00    -0.646 OA
BRANCH  26  28
ATOM     28  O           0      43.777   3.311  18.675  0.00  0.00    -0.772 OA
ATOM     29  H           0      43.032   2.674  18.714  0.00  0.00     0.167 HD
ENDBRANCH  26  28
ENDBRANCH   9  26
TORSDOF 5
