REMARK  5 active torsions:
REMARK  status: ('A' for Active; 'I' for Inactive)
REMARK    1  A    between atoms: O_2  and  C_14 
REMARK    2  A    between atoms: O_4  and  C_26 
REMARK    3  A    between atoms: N_6  and  C_9 
REMARK    4  A    between atoms: N_7  and  C_16 
REMARK    5  A    between atoms: C_21  and  C_26 
ROOT
ATOM      1  F           0      36.503   2.285  20.642  0.00  0.00    -0.204 F 
ATOM      2  O           0      40.970   3.177  18.501  0.00  0.00    -0.286 OA
ATOM      3  N           0      41.313   4.581  22.314  0.00  0.00    -0.348 N 
ATOM      4  C           0      40.076   4.001  21.916  0.00  0.00     0.085 A 
ATOM      5  C           0      42.354   4.652  21.409  0.00  0.00     0.114 A 
ATOM      6  C           0      38.976   3.894  22.784  0.00  0.00     0.125 A 
ATOM      7  C           0      39.928   3.507  20.602  0.00  0.00     0.048 A 
ATOM      8  C           0      37.776   3.318  22.357  0.00  0.00     0.105 A 
ATOM      9  C           0      42.321   4.217  20.143  0.00  0.00     0.104 A 
ATOM     10  C           0      41.065   3.598  19.647  0.00  0.00     0.202 A 
ATOM     11  C           0      38.725   2.931  20.175  0.00  0.00     0.062 A 
ATOM     12  C           0      37.651   2.839  21.057  0.00  0.00     0.146 A 
ENDROOT
BRANCH   8  13
ATOM     13  N           0      36.685   3.216  23.228  0.00  0.00    -0.372 N 
ATOM     14  C           0      35.333   3.298  22.654  0.00  0.00     0.158 C 
ATOM     15  C           0      34.317   3.698  23.734  0.00  0.00     0.234 C 
ATOM     16  N           0      34.404   2.798  24.890  0.00  0.00     0.090 N 
ATOM     17  C           0      32.895   3.657  23.175  0.00  0.00     0.044 C 
ATOM     18  C           0      35.745   2.845  25.470  0.00  0.00     0.289 C 
ATOM     19  H           0      34.201   1.844  24.591  0.00  0.00     0.316 HD
ATOM     20  C           0      36.807   2.425  24.456  0.00  0.00     0.153 C 
ENDBRANCH   8  13
BRANCH   6  21
ATOM     21  O           0      39.015   4.341  24.075  0.00  0.00    -0.351 OA
ATOM     22  C           0      39.513   3.435  25.055  0.00  0.00     0.210 C 
ENDBRANCH   6  21
BRANCH   3  23
ATOM     23  C           0      41.570   5.126  23.667  0.00  0.00     0.090 A 
ATOM     24  C           0      42.607   6.176  23.881  0.00  0.00     0.028 A 
ATOM     25  C           0      41.151   6.513  24.022  0.00  0.00     0.028 A 
ENDBRANCH   3  23
BRANCH   9  26
ATOM     26  C           0      43.521   4.374  19.320  0.00  0.00     0.181 C 
ATOM     27  O           0      44.182   5.395  19.251  0.00  0.00    -0.646 OA
BRANCH  26  28
ATOM     28  O           0      43.774   3.223  18.662  0.00  0.00    -0.772 OA
ATOM     29  H           0      43.038   2.580  18.747  0.00  0.00     0.167 HD
ENDBRANCH  26  28
ENDBRANCH   9  26
TORSDOF 5
