REMARK  5 active torsions:
REMARK  status: ('A' for Active; 'I' for Inactive)
REMARK    1  A    between atoms: O_2  and  C_14 
REMARK    2  A    between atoms: O_4  and  C_26 
REMARK    3  A    between atoms: N_6  and  C_9 
REMARK    4  A    between atoms: N_7  and  C_16 
REMARK    5  A    between atoms: C_21  and  C_26 
ROOT
ATOM      1  F           0      36.361   2.463  20.450  0.00  0.00    -0.204 F 
ATOM      2  O           0      40.913   3.230  18.445  0.00  0.00    -0.286 OA
ATOM      3  N           0      41.223   4.490  22.310  0.00  0.00    -0.348 N 
ATOM      4  C           0      39.971   3.978  21.865  0.00  0.00     0.085 A 
ATOM      5  C           0      42.288   4.546  21.433  0.00  0.00     0.114 A 
ATOM      6  C           0      38.847   3.891  22.703  0.00  0.00     0.125 A 
ATOM      7  C           0      39.835   3.535  20.531  0.00  0.00     0.048 A 
ATOM      8  C           0      37.634   3.382  22.229  0.00  0.00     0.105 A 
ATOM      9  C           0      42.267   4.154  20.152  0.00  0.00     0.104 A 
ATOM     10  C           0      40.998   3.607  19.607  0.00  0.00     0.202 A 
ATOM     11  C           0      38.620   3.026  20.057  0.00  0.00     0.062 A 
ATOM     12  C           0      37.521   2.952  20.911  0.00  0.00     0.146 A 
ENDROOT
BRANCH   8  13
ATOM     13  N           0      36.519   3.299  23.070  0.00  0.00    -0.372 N 
ATOM     14  C           0      35.187   3.472  22.471  0.00  0.00     0.158 C 
ATOM     15  C           0      34.166   3.878  23.543  0.00  0.00     0.234 C 
ATOM     16  N           0      34.181   2.928  24.662  0.00  0.00     0.090 N 
ATOM     17  C           0      32.758   3.930  22.951  0.00  0.00     0.044 C 
ATOM     18  C           0      35.508   2.884  25.273  0.00  0.00     0.289 C 
ATOM     19  H           0      33.939   1.998  24.318  0.00  0.00     0.316 HD
ATOM     20  C           0      36.573   2.453  24.266  0.00  0.00     0.153 C 
ENDBRANCH   8  13
BRANCH   6  21
ATOM     21  O           0      38.874   4.292  24.009  0.00  0.00    -0.351 OA
ATOM     22  C           0      39.328   3.340  24.966  0.00  0.00     0.210 C 
ENDBRANCH   6  21
BRANCH   3  23
ATOM     23  C           0      41.470   4.978  23.687  0.00  0.00     0.090 A 
ATOM     24  C           0      42.441   6.080  23.942  0.00  0.00     0.028 A 
ATOM     25  C           0      40.969   6.314  24.122  0.00  0.00     0.028 A 
ENDBRANCH   3  23
BRANCH   9  26
ATOM     26  C           0      43.492   4.286  19.363  0.00  0.00     0.181 C 
ATOM     27  O           0      44.202   5.276  19.350  0.00  0.00    -0.646 OA
BRANCH  26  28
ATOM     28  O           0      43.707   3.151  18.664  0.00  0.00    -0.772 OA
ATOM     29  H           0      42.945   2.536  18.718  0.00  0.00     0.167 HD
ENDBRANCH  26  28
ENDBRANCH   9  26
TORSDOF 5
