REMARK  5 active torsions:
REMARK  status: ('A' for Active; 'I' for Inactive)
REMARK    1  A    between atoms: O_2  and  C_14 
REMARK    2  A    between atoms: O_4  and  C_26 
REMARK    3  A    between atoms: N_6  and  C_9 
REMARK    4  A    between atoms: N_7  and  C_16 
REMARK    5  A    between atoms: C_21  and  C_26 
ROOT
ATOM      1  F           0      36.550   2.268  20.599  0.00  0.00    -0.204 F 
ATOM      2  O           0      41.025   3.149  18.468  0.00  0.00    -0.286 OA
ATOM      3  N           0      41.328   4.647  22.248  0.00  0.00    -0.348 N 
ATOM      4  C           0      40.099   4.047  21.856  0.00  0.00     0.085 A 
ATOM      5  C           0      42.375   4.707  21.349  0.00  0.00     0.114 A 
ATOM      6  C           0      38.994   3.951  22.719  0.00  0.00     0.125 A 
ATOM      7  C           0      39.965   3.520  20.553  0.00  0.00     0.048 A 
ATOM      8  C           0      37.802   3.355  22.298  0.00  0.00     0.105 A 
ATOM      9  C           0      42.354   4.240  20.094  0.00  0.00     0.104 A 
ATOM     10  C           0      41.107   3.598  19.605  0.00  0.00     0.202 A 
ATOM     11  C           0      38.771   2.923  20.132  0.00  0.00     0.062 A 
ATOM     12  C           0      37.691   2.843  21.009  0.00  0.00     0.146 A 
ENDROOT
BRANCH   8  13
ATOM     13  N           0      36.705   3.264  23.162  0.00  0.00    -0.372 N 
ATOM     14  C           0      35.364   3.487  22.604  0.00  0.00     0.158 C 
ATOM     15  C           0      34.378   3.874  23.716  0.00  0.00     0.234 C 
ATOM     16  N           0      34.400   2.883  24.798  0.00  0.00     0.090 N 
ATOM     17  C           0      32.958   3.978  23.162  0.00  0.00     0.044 C 
ATOM     18  C           0      35.740   2.788  25.374  0.00  0.00     0.289 C 
ATOM     19  H           0      34.128   1.971  24.426  0.00  0.00     0.316 HD
ATOM     20  C           0      36.770   2.372  24.325  0.00  0.00     0.153 C 
ENDBRANCH   8  13
BRANCH   6  21
ATOM     21  O           0      39.020   4.430  23.998  0.00  0.00    -0.351 OA
ATOM     22  C           0      39.401   3.513  25.021  0.00  0.00     0.210 C 
ENDBRANCH   6  21
BRANCH   3  23
ATOM     23  C           0      41.571   5.228  23.590  0.00  0.00     0.090 A 
ATOM     24  C           0      42.572   6.316  23.779  0.00  0.00     0.028 A 
ATOM     25  C           0      41.106   6.607  23.918  0.00  0.00     0.028 A 
ENDBRANCH   3  23
BRANCH   9  26
ATOM     26  C           0      43.559   4.388  19.276  0.00  0.00     0.181 C 
ATOM     27  O           0      44.203   5.417  19.174  0.00  0.00    -0.646 OA
BRANCH  26  28
ATOM     28  O           0      43.838   3.218  18.662  0.00  0.00    -0.772 OA
ATOM     29  H           0      43.086   2.590  18.708  0.00  0.00     0.167 HD
ENDBRANCH  26  28
ENDBRANCH   9  26
TORSDOF 5
