REMARK  5 active torsions:
REMARK  status: ('A' for Active; 'I' for Inactive)
REMARK    1  A    between atoms: O_2  and  C_14 
REMARK    2  A    between atoms: O_4  and  C_26 
REMARK    3  A    between atoms: N_6  and  C_9 
REMARK    4  A    between atoms: N_7  and  C_16 
REMARK    5  A    between atoms: C_21  and  C_26 
ROOT
ATOM      1  F           0      36.691   2.099  20.903  0.00  0.00    -0.204 F 
ATOM      2  O           0      41.063   3.143  18.638  0.00  0.00    -0.286 OA
ATOM      3  N           0      41.384   4.751  22.371  0.00  0.00    -0.348 N 
ATOM      4  C           0      40.176   4.081  22.025  0.00  0.00     0.085 A 
ATOM      5  C           0      42.404   4.839  21.444  0.00  0.00     0.114 A 
ATOM      6  C           0      39.099   3.953  22.918  0.00  0.00     0.125 A 
ATOM      7  C           0      40.037   3.515  20.739  0.00  0.00     0.048 A 
ATOM      8  C           0      37.928   3.288  22.542  0.00  0.00     0.105 A 
ATOM      9  C           0      42.376   4.339  20.201  0.00  0.00     0.104 A 
ATOM     10  C           0      41.151   3.624  19.760  0.00  0.00     0.202 A 
ATOM     11  C           0      38.864   2.849  20.364  0.00  0.00     0.062 A 
ATOM     12  C           0      37.812   2.739  21.269  0.00  0.00     0.146 A 
ENDROOT
BRANCH   8  13
ATOM     13  N           0      36.859   3.166  23.437  0.00  0.00    -0.372 N 
ATOM     14  C           0      35.493   3.236  22.896  0.00  0.00     0.158 C 
ATOM     15  C           0      34.498   3.616  24.002  0.00  0.00     0.234 C 
ATOM     16  N           0      34.624   2.707  25.148  0.00  0.00     0.090 N 
ATOM     17  C           0      33.065   3.562  23.476  0.00  0.00     0.044 C 
ATOM     18  C           0      35.977   2.765  25.697  0.00  0.00     0.289 C 
ATOM     19  H           0      34.424   1.753  24.845  0.00  0.00     0.316 HD
ATOM     20  C           0      37.020   2.366  24.655  0.00  0.00     0.153 C 
ENDBRANCH   8  13
BRANCH   6  21
ATOM     21  O           0      39.132   4.466  24.184  0.00  0.00    -0.351 OA
ATOM     22  C           0      39.606   3.603  25.215  0.00  0.00     0.210 C 
ENDBRANCH   6  21
BRANCH   3  23
ATOM     23  C           0      41.630   5.377  23.691  0.00  0.00     0.090 A 
ATOM     24  C           0      42.629   6.473  23.840  0.00  0.00     0.028 A 
ATOM     25  C           0      41.163   6.765  23.974  0.00  0.00     0.028 A 
ENDBRANCH   3  23
BRANCH   9  26
ATOM     26  C           0      43.551   4.526  19.349  0.00  0.00     0.181 C 
ATOM     27  O           0      44.195   5.557  19.276  0.00  0.00    -0.646 OA
BRANCH  26  28
ATOM     28  O           0      43.805   3.386  18.670  0.00  0.00    -0.772 OA
ATOM     29  H           0      43.159   2.679  18.883  0.00  0.00     0.167 HD
ENDBRANCH  26  28
ENDBRANCH   9  26
TORSDOF 5
