REMARK  5 active torsions:
REMARK  status: ('A' for Active; 'I' for Inactive)
REMARK    1  A    between atoms: O_2  and  C_14 
REMARK    2  A    between atoms: O_4  and  C_26 
REMARK    3  A    between atoms: N_6  and  C_9 
REMARK    4  A    between atoms: N_7  and  C_16 
REMARK    5  A    between atoms: C_21  and  C_26 
ROOT
ATOM      1  F           0      36.678   2.127  20.919  0.00  0.00    -0.204 F 
ATOM      2  O           0      40.986   3.142  18.521  0.00  0.00    -0.286 OA
ATOM      3  N           0      41.471   4.658  22.275  0.00  0.00    -0.348 N 
ATOM      4  C           0      40.239   4.018  21.958  0.00  0.00     0.085 A 
ATOM      5  C           0      42.459   4.748  21.314  0.00  0.00     0.114 A 
ATOM      6  C           0      39.192   3.890  22.887  0.00  0.00     0.125 A 
ATOM      7  C           0      40.043   3.485  20.666  0.00  0.00     0.048 A 
ATOM      8  C           0      37.996   3.256  22.539  0.00  0.00     0.105 A 
ATOM      9  C           0      42.377   4.278  20.063  0.00  0.00     0.104 A 
ATOM     10  C           0      41.123   3.596  19.650  0.00  0.00     0.202 A 
ATOM     11  C           0      38.845   2.849  20.319  0.00  0.00     0.062 A 
ATOM     12  C           0      37.823   2.738  21.259  0.00  0.00     0.146 A 
ENDROOT
BRANCH   8  13
ATOM     13  N           0      36.957   3.133  23.468  0.00  0.00    -0.372 N 
ATOM     14  C           0      35.575   3.228  22.977  0.00  0.00     0.158 C 
ATOM     15  C           0      34.624   3.603  24.123  0.00  0.00     0.234 C 
ATOM     16  N           0      34.777   2.675  25.250  0.00  0.00     0.090 N 
ATOM     17  C           0      33.172   3.575  23.647  0.00  0.00     0.044 C 
ATOM     18  C           0      36.150   2.708  25.752  0.00  0.00     0.289 C 
ATOM     19  H           0      34.556   1.728  24.940  0.00  0.00     0.316 HD
ATOM     20  C           0      37.150   2.312  24.668  0.00  0.00     0.153 C 
ENDBRANCH   8  13
BRANCH   6  21
ATOM     21  O           0      39.280   4.372  24.162  0.00  0.00    -0.351 OA
ATOM     22  C           0      39.837   3.501  25.142  0.00  0.00     0.210 C 
ENDBRANCH   6  21
BRANCH   3  23
ATOM     23  C           0      41.776   5.249  23.599  0.00  0.00     0.090 A 
ATOM     24  C           0      42.611   6.479  23.710  0.00  0.00     0.028 A 
ATOM     25  C           0      41.144   6.531  24.024  0.00  0.00     0.028 A 
ENDBRANCH   3  23
BRANCH   9  26
ATOM     26  C           0      43.524   4.462  19.173  0.00  0.00     0.181 C 
ATOM     27  O           0      44.054   5.534  18.940  0.00  0.00    -0.646 OA
BRANCH  26  28
ATOM     28  O           0      43.897   3.269  18.661  0.00  0.00    -0.772 OA
ATOM     29  H           0      43.126   2.705  18.442  0.00  0.00     0.167 HD
ENDBRANCH  26  28
ENDBRANCH   9  26
TORSDOF 5
