REMARK  5 active torsions:
REMARK  status: ('A' for Active; 'I' for Inactive)
REMARK    1  A    between atoms: O_2  and  C_14 
REMARK    2  A    between atoms: O_4  and  C_26 
REMARK    3  A    between atoms: N_6  and  C_9 
REMARK    4  A    between atoms: N_7  and  C_16 
REMARK    5  A    between atoms: C_21  and  C_26 
ROOT
ATOM      1  F           0      36.697   2.128  20.908  0.00  0.00    -0.204 F 
ATOM      2  O           0      41.014   3.113  18.514  0.00  0.00    -0.286 OA
ATOM      3  N           0      41.464   4.723  22.233  0.00  0.00    -0.348 N 
ATOM      4  C           0      40.239   4.068  21.924  0.00  0.00     0.085 A 
ATOM      5  C           0      42.458   4.796  21.277  0.00  0.00     0.114 A 
ATOM      6  C           0      39.186   3.956  22.848  0.00  0.00     0.125 A 
ATOM      7  C           0      40.055   3.501  20.644  0.00  0.00     0.048 A 
ATOM      8  C           0      37.996   3.305  22.508  0.00  0.00     0.105 A 
ATOM      9  C           0      42.387   4.295  20.037  0.00  0.00     0.104 A 
ATOM     10  C           0      41.141   3.595  19.633  0.00  0.00     0.202 A 
ATOM     11  C           0      38.863   2.850  20.304  0.00  0.00     0.062 A 
ATOM     12  C           0      37.836   2.755  21.240  0.00  0.00     0.146 A 
ENDROOT
BRANCH   8  13
ATOM     13  N           0      36.952   3.198  23.433  0.00  0.00    -0.372 N 
ATOM     14  C           0      35.572   3.247  22.928  0.00  0.00     0.158 C 
ATOM     15  C           0      34.605   3.647  24.051  0.00  0.00     0.234 C 
ATOM     16  N           0      34.766   2.767  25.214  0.00  0.00     0.090 N 
ATOM     17  C           0      33.158   3.573  23.565  0.00  0.00     0.044 C 
ATOM     18  C           0      36.133   2.846  25.726  0.00  0.00     0.289 C 
ATOM     19  H           0      34.565   1.805  24.940  0.00  0.00     0.316 HD
ATOM     20  C           0      37.151   2.428  24.665  0.00  0.00     0.153 C 
ENDBRANCH   8  13
BRANCH   6  21
ATOM     21  O           0      39.263   4.469  24.112  0.00  0.00    -0.351 OA
ATOM     22  C           0      39.833   3.632  25.114  0.00  0.00     0.210 C 
ENDBRANCH   6  21
BRANCH   3  23
ATOM     23  C           0      41.756   5.348  23.544  0.00  0.00     0.090 A 
ATOM     24  C           0      42.619   6.560  23.635  0.00  0.00     0.028 A 
ATOM     25  C           0      41.148   6.659  23.915  0.00  0.00     0.028 A 
ENDBRANCH   3  23
BRANCH   9  26
ATOM     26  C           0      43.540   4.465  19.151  0.00  0.00     0.181 C 
ATOM     27  O           0      44.063   5.534  18.894  0.00  0.00    -0.646 OA
BRANCH  26  28
ATOM     28  O           0      43.925   3.262  18.672  0.00  0.00    -0.772 OA
ATOM     29  H           0      43.160   2.712  18.400  0.00  0.00     0.167 HD
ENDBRANCH  26  28
ENDBRANCH   9  26
TORSDOF 5
