REMARK  5 active torsions:
REMARK  status: ('A' for Active; 'I' for Inactive)
REMARK    1  A    between atoms: O_2  and  C_14 
REMARK    2  A    between atoms: O_4  and  C_26 
REMARK    3  A    between atoms: N_6  and  C_9 
REMARK    4  A    between atoms: N_7  and  C_16 
REMARK    5  A    between atoms: C_21  and  C_26 
ROOT
ATOM      1  F           0      39.213   3.205  18.551  0.00  0.00    -0.204 F 
ATOM      2  O           0      34.807   3.296  20.984  0.00  0.00    -0.286 OA
ATOM      3  N           0      37.640   3.141  23.911  0.00  0.00    -0.348 N 
ATOM      4  C           0      38.071   3.156  22.555  0.00  0.00     0.085 A 
ATOM      5  C           0      36.290   3.179  24.199  0.00  0.00     0.114 A 
ATOM      6  C           0      39.427   3.121  22.190  0.00  0.00     0.125 A 
ATOM      7  C           0      37.112   3.209  21.520  0.00  0.00     0.048 A 
ATOM      8  C           0      39.812   3.137  20.846  0.00  0.00     0.105 A 
ATOM      9  C           0      35.301   3.229  23.297  0.00  0.00     0.104 A 
ATOM     10  C           0      35.664   3.248  21.857  0.00  0.00     0.202 A 
ATOM     11  C           0      37.498   3.225  20.174  0.00  0.00     0.062 A 
ATOM     12  C           0      38.850   3.188  19.842  0.00  0.00     0.146 A 
ENDROOT
BRANCH   8  13
ATOM     13  N           0      41.165   3.101  20.491  0.00  0.00    -0.372 N 
ATOM     14  C           0      41.933   1.890  20.816  0.00  0.00     0.158 C 
ATOM     15  C           0      43.436   2.204  20.857  0.00  0.00     0.234 C 
ATOM     16  N           0      43.867   2.849  19.612  0.00  0.00     0.090 N 
ATOM     17  C           0      44.246   0.925  21.064  0.00  0.00     0.044 C 
ATOM     18  C           0      43.134   4.097  19.405  0.00  0.00     0.289 C 
ATOM     19  H           0      43.688   2.221  18.827  0.00  0.00     0.316 HD
ATOM     20  C           0      41.629   3.853  19.321  0.00  0.00     0.153 C 
ENDBRANCH   8  13
BRANCH   6  21
ATOM     21  O           0      40.433   3.068  23.114  0.00  0.00    -0.351 OA
ATOM     22  C           0      41.054   4.303  23.461  0.00  0.00     0.210 C 
ENDBRANCH   6  21
BRANCH   3  23
ATOM     23  C           0      38.565   3.087  25.069  0.00  0.00     0.090 A 
ATOM     24  C           0      38.048   2.836  26.444  0.00  0.00     0.028 A 
ATOM     25  C           0      38.865   1.791  25.743  0.00  0.00     0.028 A 
ENDBRANCH   3  23
BRANCH   9  26
ATOM     26  C           0      33.920   3.263  23.780  0.00  0.00     0.181 C 
ATOM     27  O           0      33.459   2.502  24.612  0.00  0.00    -0.646 OA
BRANCH  26  28
ATOM     28  O           0      33.248   4.261  23.166  0.00  0.00    -0.772 OA
ATOM     29  H           0      33.217   4.139  22.193  0.00  0.00     0.167 HD
ENDBRANCH  26  28
ENDBRANCH   9  26
TORSDOF 5
