REMARK  5 active torsions:
REMARK  status: ('A' for Active; 'I' for Inactive)
REMARK    1  A    between atoms: O_2  and  C_14 
REMARK    2  A    between atoms: O_4  and  C_26 
REMARK    3  A    between atoms: N_6  and  C_9 
REMARK    4  A    between atoms: N_7  and  C_16 
REMARK    5  A    between atoms: C_21  and  C_26 
ROOT
ATOM      1  F           0      36.445   2.160  20.741  0.00  0.00    -0.204 F 
ATOM      2  O           0      40.814   3.149  18.445  0.00  0.00    -0.286 OA
ATOM      3  N           0      41.245   4.599  22.232  0.00  0.00    -0.348 N 
ATOM      4  C           0      40.011   3.982  21.881  0.00  0.00     0.085 A 
ATOM      5  C           0      42.253   4.690  21.292  0.00  0.00     0.114 A 
ATOM      6  C           0      38.943   3.855  22.785  0.00  0.00     0.125 A 
ATOM      7  C           0      39.833   3.472  20.576  0.00  0.00     0.048 A 
ATOM      8  C           0      37.745   3.244  22.404  0.00  0.00     0.105 A 
ATOM      9  C           0      42.190   4.240  20.032  0.00  0.00     0.104 A 
ATOM     10  C           0      40.935   3.583  19.584  0.00  0.00     0.202 A 
ATOM     11  C           0      38.633   2.859  20.195  0.00  0.00     0.062 A 
ATOM     12  C           0      37.591   2.748  21.113  0.00  0.00     0.146 A 
ENDROOT
BRANCH   8  13
ATOM     13  N           0      36.687   3.121  23.310  0.00  0.00    -0.372 N 
ATOM     14  C           0      35.315   3.235  22.791  0.00  0.00     0.158 C 
ATOM     15  C           0      34.344   3.607  23.921  0.00  0.00     0.234 C 
ATOM     16  N           0      34.466   2.667  25.042  0.00  0.00     0.090 N 
ATOM     17  C           0      32.903   3.597  23.415  0.00  0.00     0.044 C 
ATOM     18  C           0      35.828   2.681  25.573  0.00  0.00     0.289 C 
ATOM     19  H           0      34.242   1.725  24.718  0.00  0.00     0.316 HD
ATOM     20  C           0      36.847   2.287  24.505  0.00  0.00     0.153 C 
ENDBRANCH   8  13
BRANCH   6  21
ATOM     21  O           0      39.013   4.316  24.070  0.00  0.00    -0.351 OA
ATOM     22  C           0      39.569   3.435  25.041  0.00  0.00     0.210 C 
ENDBRANCH   6  21
BRANCH   3  23
ATOM     23  C           0      41.531   5.165  23.571  0.00  0.00     0.090 A 
ATOM     24  C           0      42.593   6.196  23.751  0.00  0.00     0.028 A 
ATOM     25  C           0      41.146   6.567  23.903  0.00  0.00     0.028 A 
ENDBRANCH   3  23
BRANCH   9  26
ATOM     26  C           0      43.357   4.421  19.169  0.00  0.00     0.181 C 
ATOM     27  O           0      43.890   5.494  18.942  0.00  0.00    -0.646 OA
BRANCH  26  28
ATOM     28  O           0      43.745   3.227  18.673  0.00  0.00    -0.772 OA
ATOM     29  H           0      42.980   2.662  18.433  0.00  0.00     0.167 HD
ENDBRANCH  26  28
ENDBRANCH   9  26
TORSDOF 5
