REMARK  4 active torsions:
REMARK  status: ('A' for Active; 'I' for Inactive)
REMARK    1  A    between atoms: O01_2  and  C13_22 
REMARK    2  A    between atoms: N01_6  and  C11_20 
REMARK    3  A    between atoms: N_9  and  C06_15 
REMARK    4  A    between atoms: C18_27  and  C20_29 
ROOT
HETATM    1  F   MFX G 101      39.671   3.284  18.654  1.00 51.60    -0.204 F 
HETATM    2  O02 MFX G 101      34.886   3.292  20.164  1.00 42.61    -0.286 OA
HETATM    3  N   MFX G 101      37.047   2.977  23.697  1.00 46.25    -0.348 N 
HETATM    4  C11 MFX G 101      39.894   3.089  21.061  1.00 46.11     0.085 A 
HETATM    5  C12 MFX G 101      37.791   3.056  22.367  1.00 44.46     0.084 A 
HETATM    6  C13 MFX G 101      39.207   3.024  22.293  1.00 44.83     0.120 A 
HETATM    7  C14 MFX G 101      37.045   3.164  21.170  1.00 43.01     0.048 A 
HETATM    8  C15 MFX G 101      39.118   3.210  19.874  1.00 46.00     0.141 A 
HETATM    9  C16 MFX G 101      35.599   3.009  23.717  1.00 45.81     0.114 A 
HETATM   10  C17 MFX G 101      37.715   3.240  19.939  1.00 44.16     0.062 A 
HETATM   11  C18 MFX G 101      34.827   3.120  22.465  1.00 45.17     0.107 A 
HETATM   12  C19 MFX G 101      35.527   3.199  21.196  1.00 42.86     0.203 A 
ENDROOT
BRANCH   4  13
HETATM   13  N01 MFX G 101      41.376   3.073  21.106  1.00 47.98    -0.276 NA
HETATM   14  C03 MFX G 101      42.048   1.829  21.829  1.00 55.03     0.102 C 
HETATM   15  C01 MFX G 101      43.530   1.787  21.275  1.00 61.18     0.031 C 
HETATM   16  C02 MFX G 101      43.602   2.773  20.325  1.00 61.49     0.204 C 
HETATM   17  C05 MFX G 101      44.661   1.784  22.298  1.00 60.59     0.009 C 
HETATM   18  N02 MFX G 101      44.032   4.131  20.848  1.00 58.62    -0.069 N 
HETATM   19  C04 MFX G 101      42.051   3.139  19.932  1.00 49.35     0.129 C 
HETATM   20  C10 MFX G 101      45.199   4.051  21.695  1.00 59.20     0.233 C 
HETATM   21 2HN0 MFX G 101      43.345   4.509  21.312  1.00 70.34     0.277 HD
HETATM   22  H02 MFX G 101      44.251   4.729  20.051  1.00  0.00     0.277 HD
HETATM   23  C07 MFX G 101      45.060   3.104  22.752  1.00 61.04     0.028 C 
ENDBRANCH   4  13
BRANCH   6  24
HETATM   24  O01 MFX G 101      39.988   2.931  23.471  1.00 44.82    -0.352 OA
HETATM   25  C   MFX G 101      40.377   4.212  23.977  1.00 42.31     0.210 C 
ENDBRANCH   6  24
BRANCH   3  26
HETATM   26  C06 MFX G 101      37.697   2.840  24.977  1.00 46.49     0.090 A 
HETATM   27  C08 MFX G 101      38.566   1.777  25.637  1.00 47.34     0.028 A 
HETATM   28  C09 MFX G 101      37.125   1.932  26.061  1.00 49.59     0.028 A 
ENDBRANCH   3  26
BRANCH  11  29
HETATM   29  C20 MFX G 101      33.308   3.160  22.542  1.00 48.24     0.214 C 
HETATM   30  O03 MFX G 101      32.763   3.419  23.652  1.00 48.93    -0.644 OA
HETATM   31  O   MFX G 101      32.604   2.954  21.515  1.00 49.20    -0.644 OA
ENDBRANCH  11  29
TORSDOF 4
