REMARK  4 active torsions:
REMARK  status: ('A' for Active; 'I' for Inactive)
REMARK    1  A    between atoms: O01_2  and  C13_22 
REMARK    2  A    between atoms: N01_6  and  C11_20 
REMARK    3  A    between atoms: N_9  and  C06_15 
REMARK    4  A    between atoms: C18_27  and  C20_29 
ROOT
HETATM    1  F   MFX G 101      40.025   6.050  26.364  1.00 51.60    -0.204 F 
HETATM    2  O02 MFX G 101      43.153   8.172  23.064  1.00 42.61    -0.286 OA
HETATM    3  N   MFX G 101      41.735   4.811  21.077  1.00 46.25    -0.348 N 
HETATM    4  C11 MFX G 101      39.884   4.533  24.478  1.00 46.11     0.085 A 
HETATM    5  C12 MFX G 101      41.250   5.105  22.494  1.00 44.46     0.084 A 
HETATM    6  C13 MFX G 101      40.326   4.264  23.163  1.00 44.83     0.120 A 
HETATM    7  C14 MFX G 101      41.739   6.253  23.161  1.00 43.01     0.048 A 
HETATM    8  C15 MFX G 101      40.383   5.701  25.119  1.00 46.00     0.141 A 
HETATM    9  C16 MFX G 101      42.684   5.701  20.439  1.00 45.81     0.114 A 
HETATM   10  C17 MFX G 101      41.301   6.538  24.463  1.00 44.16     0.062 A 
HETATM   11  C18 MFX G 101      43.191   6.895  21.141  1.00 45.17     0.107 A 
HETATM   12  C19 MFX G 101      42.733   7.184  22.488  1.00 42.86     0.203 A 
ENDROOT
BRANCH   4  13
HETATM   13  N01 MFX G 101      38.897   3.598  25.069  1.00 47.98    -0.276 NA
HETATM   14  C03 MFX G 101      37.505   3.470  24.315  1.00 55.03     0.102 C 
HETATM   15  C01 MFX G 101      36.904   2.088  24.801  1.00 61.18     0.031 C 
HETATM   16  C02 MFX G 101      37.868   1.518  25.592  1.00 61.49     0.204 C 
HETATM   17  C05 MFX G 101      35.500   2.106  25.396  1.00 60.59     0.009 C 
HETATM   18  N02 MFX G 101      37.772   1.868  27.065  1.00 58.62    -0.069 N 
HETATM   19  C04 MFX G 101      39.266   2.305  25.241  1.00 49.35     0.129 C 
HETATM   20  C10 MFX G 101      36.432   1.718  27.581  1.00 59.20     0.233 C 
HETATM   21 2HN0 MFX G 101      38.053   2.726  27.192  1.00 70.34     0.277 HD
HETATM   22  H02 MFX G 101      38.391   1.246  27.585  1.00  0.00     0.277 HD
HETATM   23  C07 MFX G 101      35.455   2.418  26.813  1.00 61.04     0.028 C 
ENDBRANCH   4  13
BRANCH   6  24
HETATM   24  O01 MFX G 101      39.803   3.114  22.523  1.00 44.82    -0.352 OA
HETATM   25  C   MFX G 101      38.707   3.417  21.654  1.00 42.31     0.210 C 
ENDBRANCH   6  24
BRANCH   3  26
HETATM   26  C06 MFX G 101      41.327   3.661  20.308  1.00 46.49     0.090 A 
HETATM   27  C08 MFX G 101      41.823   2.227  20.168  1.00 47.34     0.028 A 
HETATM   28  C09 MFX G 101      42.100   3.224  19.068  1.00 49.59     0.028 A 
ENDBRANCH   3  26
BRANCH  11  29
HETATM   29  C20 MFX G 101      44.179   7.802  20.423  1.00 48.24     0.214 C 
HETATM   30  O03 MFX G 101      43.774   8.917  19.988  1.00 48.93    -0.644 OA
HETATM   31  O   MFX G 101      45.384   7.457  20.277  1.00 49.20    -0.644 OA
ENDBRANCH  11  29
TORSDOF 4
