REMARK  4 active torsions:
REMARK  status: ('A' for Active; 'I' for Inactive)
REMARK    1  A    between atoms: O01_2  and  C13_22 
REMARK    2  A    between atoms: N01_6  and  C11_20 
REMARK    3  A    between atoms: N_9  and  C06_15 
REMARK    4  A    between atoms: C18_27  and  C20_29 
ROOT
HETATM    1  F   MFX G 101      40.023   6.196  26.245  1.00 51.60    -0.204 F 
HETATM    2  O02 MFX G 101      43.086   8.227  22.828  1.00 42.61    -0.286 OA
HETATM    3  N   MFX G 101      41.723   4.751  21.007  1.00 46.25    -0.348 N 
HETATM    4  C11 MFX G 101      39.901   4.591  24.431  1.00 46.11     0.085 A 
HETATM    5  C12 MFX G 101      41.242   5.100  22.413  1.00 44.46     0.084 A 
HETATM    6  C13 MFX G 101      40.339   4.271  23.127  1.00 44.83     0.120 A 
HETATM    7  C14 MFX G 101      41.712   6.286  23.023  1.00 43.01     0.048 A 
HETATM    8  C15 MFX G 101      40.381   5.797  25.015  1.00 46.00     0.141 A 
HETATM    9  C16 MFX G 101      42.650   5.629  20.323  1.00 45.81     0.114 A 
HETATM   10  C17 MFX G 101      41.277   6.622  24.314  1.00 44.16     0.062 A 
HETATM   11  C18 MFX G 101      43.137   6.864  20.965  1.00 45.17     0.107 A 
HETATM   12  C19 MFX G 101      42.682   7.205  22.301  1.00 42.86     0.203 A 
ENDROOT
BRANCH   4  13
HETATM   13  N01 MFX G 101      38.937   3.665  25.072  1.00 47.98    -0.276 NA
HETATM   14  C03 MFX G 101      37.585   3.395  24.283  1.00 55.03     0.102 C 
HETATM   15  C01 MFX G 101      37.032   2.035  24.875  1.00 61.18     0.031 C 
HETATM   16  C02 MFX G 101      37.990   1.592  25.751  1.00 61.49     0.204 C 
HETATM   17  C05 MFX G 101      35.606   2.034  25.415  1.00 60.59     0.009 C 
HETATM   18  N02 MFX G 101      37.817   2.071  27.180  1.00 58.62    -0.069 N 
HETATM   19  C04 MFX G 101      39.361   2.414  25.378  1.00 49.35     0.129 C 
HETATM   20  C10 MFX G 101      36.465   1.900  27.659  1.00 59.20     0.233 C 
HETATM   21 2HN0 MFX G 101      38.050   2.950  27.236  1.00 70.34     0.277 HD
HETATM   22  H02 MFX G 101      38.443   1.532  27.779  1.00  0.00     0.277 HD
HETATM   23  C07 MFX G 101      35.488   2.473  26.793  1.00 61.04     0.028 C 
ENDBRANCH   4  13
BRANCH   6  24
HETATM   24  O01 MFX G 101      39.836   3.083  22.543  1.00 44.82    -0.352 OA
HETATM   25  C   MFX G 101      40.697   1.959  22.752  1.00 42.31     0.210 C 
ENDBRANCH   6  24
BRANCH   3  26
HETATM   26  C06 MFX G 101      41.334   3.559  20.295  1.00 46.49     0.090 A 
HETATM   27  C08 MFX G 101      41.125   3.198  18.830  1.00 47.34     0.028 A 
HETATM   28  C09 MFX G 101      39.927   3.401  19.727  1.00 49.59     0.028 A 
ENDBRANCH   3  26
BRANCH  11  29
HETATM   29  C20 MFX G 101      44.102   7.757  20.199  1.00 48.24     0.214 C 
HETATM   30  O03 MFX G 101      45.232   7.294  19.877  1.00 48.93    -0.644 OA
HETATM   31  O   MFX G 101      43.775   8.933  19.877  1.00 49.20    -0.644 OA
ENDBRANCH  11  29
TORSDOF 4
