REMARK  4 active torsions:
REMARK  status: ('A' for Active; 'I' for Inactive)
REMARK    1  A    between atoms: O01_2  and  C13_22 
REMARK    2  A    between atoms: N01_6  and  C11_20 
REMARK    3  A    between atoms: N_9  and  C06_15 
REMARK    4  A    between atoms: C18_27  and  C20_29 
ROOT
HETATM    1  F   MFX G 101      40.020   6.218  26.233  1.00 51.60    -0.204 F 
HETATM    2  O02 MFX G 101      43.090   8.239  22.817  1.00 42.61    -0.286 OA
HETATM    3  N   MFX G 101      41.760   4.739  21.018  1.00 46.25    -0.348 N 
HETATM    4  C11 MFX G 101      39.919   4.597  24.432  1.00 46.11     0.085 A 
HETATM    5  C12 MFX G 101      41.269   5.097  22.418  1.00 44.46     0.084 A 
HETATM    6  C13 MFX G 101      40.367   4.269  23.134  1.00 44.83     0.120 A 
HETATM    7  C14 MFX G 101      41.727   6.292  23.020  1.00 43.01     0.048 A 
HETATM    8  C15 MFX G 101      40.387   5.811  25.009  1.00 46.00     0.141 A 
HETATM    9  C16 MFX G 101      42.685   5.617  20.332  1.00 45.81     0.114 A 
HETATM   10  C17 MFX G 101      41.282   6.636  24.306  1.00 44.16     0.062 A 
HETATM   11  C18 MFX G 101      43.161   6.861  20.966  1.00 45.17     0.107 A 
HETATM   12  C19 MFX G 101      42.696   7.210  22.296  1.00 42.86     0.203 A 
ENDROOT
BRANCH   4  13
HETATM   13  N01 MFX G 101      38.957   3.670  25.076  1.00 47.98    -0.276 NA
HETATM   14  C03 MFX G 101      37.614   3.380  24.279  1.00 55.03     0.102 C 
HETATM   15  C01 MFX G 101      37.068   2.023  24.882  1.00 61.18     0.031 C 
HETATM   16  C02 MFX G 101      38.021   1.597  25.770  1.00 61.49     0.204 C 
HETATM   17  C05 MFX G 101      35.637   2.016  25.409  1.00 60.59     0.009 C 
HETATM   18  N02 MFX G 101      37.832   2.091  27.193  1.00 58.62    -0.069 N 
HETATM   19  C04 MFX G 101      39.388   2.427  25.400  1.00 49.35     0.129 C 
HETATM   20  C10 MFX G 101      36.477   1.914  27.662  1.00 59.20     0.233 C 
HETATM   21 2HN0 MFX G 101      38.057   2.973  27.240  1.00 70.34     0.277 HD
HETATM   22  H02 MFX G 101      38.457   1.565  27.803  1.00  0.00     0.277 HD
HETATM   23  C07 MFX G 101      35.503   2.470  26.781  1.00 61.04     0.028 C 
ENDBRANCH   4  13
BRANCH   6  24
HETATM   24  O01 MFX G 101      39.875   3.072  22.558  1.00 44.82    -0.352 OA
HETATM   25  C   MFX G 101      40.742   1.956  22.781  1.00 42.31     0.210 C 
ENDBRANCH   6  24
BRANCH   3  26
HETATM   26  C06 MFX G 101      41.383   3.538  20.314  1.00 46.49     0.090 A 
HETATM   27  C08 MFX G 101      41.150   3.173  18.854  1.00 47.34     0.028 A 
HETATM   28  C09 MFX G 101      39.968   3.349  19.777  1.00 49.59     0.028 A 
ENDBRANCH   3  26
BRANCH  11  29
HETATM   29  C20 MFX G 101      44.124   7.753  20.198  1.00 48.24     0.214 C 
HETATM   30  O03 MFX G 101      45.274   7.309  19.922  1.00 48.93    -0.644 OA
HETATM   31  O   MFX G 101      43.778   8.910  19.829  1.00 49.20    -0.644 OA
ENDBRANCH  11  29
TORSDOF 4
