REMARK  4 active torsions:
REMARK  status: ('A' for Active; 'I' for Inactive)
REMARK    1  A    between atoms: O01_2  and  C13_22 
REMARK    2  A    between atoms: N01_6  and  C11_20 
REMARK    3  A    between atoms: N_9  and  C06_15 
REMARK    4  A    between atoms: C18_27  and  C20_29 
ROOT
HETATM    1  F   MFX G 101      40.026   6.280  26.205  1.00 51.60    -0.204 F 
HETATM    2  O02 MFX G 101      43.068   8.271  22.746  1.00 42.61    -0.286 OA
HETATM    3  N   MFX G 101      41.781   4.720  21.019  1.00 46.25    -0.348 N 
HETATM    4  C11 MFX G 101      39.944   4.622  24.437  1.00 46.11     0.085 A 
HETATM    5  C12 MFX G 101      41.286   5.099  22.411  1.00 44.46     0.084 A 
HETATM    6  C13 MFX G 101      40.395   4.274  23.145  1.00 44.83     0.120 A 
HETATM    7  C14 MFX G 101      41.730   6.311  22.990  1.00 43.01     0.048 A 
HETATM    8  C15 MFX G 101      40.398   5.854  24.988  1.00 46.00     0.141 A 
HETATM    9  C16 MFX G 101      42.694   5.596  20.314  1.00 45.81     0.114 A 
HETATM   10  C17 MFX G 101      41.282   6.675  24.269  1.00 44.16     0.062 A 
HETATM   11  C18 MFX G 101      43.155   6.858  20.924  1.00 45.17     0.107 A 
HETATM   12  C19 MFX G 101      42.686   7.227  22.247  1.00 42.86     0.203 A 
ENDROOT
BRANCH   4  13
HETATM   13  N01 MFX G 101      38.994   3.696  25.099  1.00 47.98    -0.276 NA
HETATM   14  C03 MFX G 101      37.743   3.233  24.238  1.00 55.03     0.102 C 
HETATM   15  C01 MFX G 101      37.237   1.906  24.936  1.00 61.18     0.031 C 
HETATM   16  C02 MFX G 101      38.140   1.640  25.933  1.00 61.49     0.204 C 
HETATM   17  C05 MFX G 101      35.771   1.848  25.353  1.00 60.59     0.009 C 
HETATM   18  N02 MFX G 101      37.804   2.257  27.278  1.00 58.62    -0.069 N 
HETATM   19  C04 MFX G 101      39.477   2.525  25.582  1.00 49.35     0.129 C 
HETATM   20  C10 MFX G 101      36.430   2.029  27.661  1.00 59.20     0.233 C 
HETATM   21 2HN0 MFX G 101      37.967   3.152  27.251  1.00 70.34     0.277 HD
HETATM   22  H02 MFX G 101      38.409   1.839  27.985  1.00  0.00     0.277 HD
HETATM   23  C07 MFX G 101      35.496   2.424  26.657  1.00 61.04     0.028 C 
ENDBRANCH   4  13
BRANCH   6  24
HETATM   24  O01 MFX G 101      39.918   3.060  22.592  1.00 44.82    -0.352 OA
HETATM   25  C   MFX G 101      40.788   1.955  22.856  1.00 42.31     0.210 C 
ENDBRANCH   6  24
BRANCH   3  26
HETATM   26  C06 MFX G 101      41.418   3.501  20.339  1.00 46.49     0.090 A 
HETATM   27  C08 MFX G 101      41.234   3.092  18.883  1.00 47.34     0.028 A 
HETATM   28  C09 MFX G 101      40.022   3.306  19.757  1.00 49.59     0.028 A 
ENDBRANCH   3  26
BRANCH  11  29
HETATM   29  C20 MFX G 101      44.106   7.747  20.137  1.00 48.24     0.214 C 
HETATM   30  O03 MFX G 101      45.225   7.277  19.785  1.00 48.93    -0.644 OA
HETATM   31  O   MFX G 101      43.781   8.926  19.828  1.00 49.20    -0.644 OA
ENDBRANCH  11  29
TORSDOF 4
