REMARK  4 active torsions:
REMARK  status: ('A' for Active; 'I' for Inactive)
REMARK    1  A    between atoms: O01_2  and  C13_22 
REMARK    2  A    between atoms: N01_6  and  C11_20 
REMARK    3  A    between atoms: N_9  and  C06_15 
REMARK    4  A    between atoms: C18_27  and  C20_29 
ROOT
HETATM    1  F   MFX G 101      40.025   6.125  26.325  1.00 51.60    -0.204 F 
HETATM    2  O02 MFX G 101      43.129   8.153  22.945  1.00 42.61    -0.286 OA
HETATM    3  N   MFX G 101      41.709   4.731  21.068  1.00 46.25    -0.348 N 
HETATM    4  C11 MFX G 101      39.879   4.550  24.487  1.00 46.11     0.085 A 
HETATM    5  C12 MFX G 101      41.232   5.066  22.479  1.00 44.46     0.084 A 
HETATM    6  C13 MFX G 101      40.313   4.243  23.179  1.00 44.83     0.120 A 
HETATM    7  C14 MFX G 101      41.721   6.235  23.108  1.00 43.01     0.048 A 
HETATM    8  C15 MFX G 101      40.378   5.739  25.090  1.00 46.00     0.141 A 
HETATM    9  C16 MFX G 101      42.652   5.603  20.399  1.00 45.81     0.114 A 
HETATM   10  C17 MFX G 101      41.290   6.558  24.403  1.00 44.16     0.062 A 
HETATM   11  C18 MFX G 101      43.160   6.819  21.061  1.00 45.17     0.107 A 
HETATM   12  C19 MFX G 101      42.708   7.147  22.401  1.00 42.86     0.203 A 
ENDROOT
BRANCH   4  13
HETATM   13  N01 MFX G 101      38.897   3.631  25.112  1.00 47.98    -0.276 NA
HETATM   14  C03 MFX G 101      37.547   3.388  24.311  1.00 55.03     0.102 C 
HETATM   15  C01 MFX G 101      36.971   2.030  24.886  1.00 61.18     0.031 C 
HETATM   16  C02 MFX G 101      37.916   1.565  25.764  1.00 61.49     0.204 C 
HETATM   17  C05 MFX G 101      35.541   2.044  25.416  1.00 60.59     0.009 C 
HETATM   18  N02 MFX G 101      37.740   2.033  27.196  1.00 58.62    -0.069 N 
HETATM   19  C04 MFX G 101      39.301   2.372  25.409  1.00 49.35     0.129 C 
HETATM   20  C10 MFX G 101      36.383   1.876  27.664  1.00 59.20     0.233 C 
HETATM   21 2HN0 MFX G 101      37.985   2.908  27.262  1.00 70.34     0.277 HD
HETATM   22  H02 MFX G 101      38.354   1.479  27.794  1.00  0.00     0.277 HD
HETATM   23  C07 MFX G 101      35.419   2.471  26.798  1.00 61.04     0.028 C 
ENDBRANCH   4  13
BRANCH   6  24
HETATM   24  O01 MFX G 101      39.790   3.073  22.576  1.00 44.82    -0.352 OA
HETATM   25  C   MFX G 101      40.630   1.930  22.771  1.00 42.31     0.210 C 
ENDBRANCH   6  24
BRANCH   3  26
HETATM   26  C06 MFX G 101      41.300   3.557  20.337  1.00 46.49     0.090 A 
HETATM   27  C08 MFX G 101      41.092   3.221  18.866  1.00 47.34     0.028 A 
HETATM   28  C09 MFX G 101      39.894   3.435  19.760  1.00 49.59     0.028 A 
ENDBRANCH   3  26
BRANCH  11  29
HETATM   29  C20 MFX G 101      44.141   7.707  20.310  1.00 48.24     0.214 C 
HETATM   30  O03 MFX G 101      45.328   7.303  20.153  1.00 48.93    -0.644 OA
HETATM   31  O   MFX G 101      43.775   8.819  19.840  1.00 49.20    -0.644 OA
ENDBRANCH  11  29
TORSDOF 4
