REMARK  4 active torsions:
REMARK  status: ('A' for Active; 'I' for Inactive)
REMARK    1  A    between atoms: O01_2  and  C13_22 
REMARK    2  A    between atoms: N01_6  and  C11_20 
REMARK    3  A    between atoms: N_9  and  C06_15 
REMARK    4  A    between atoms: C18_27  and  C20_29 
ROOT
HETATM    1  F   MFX G 101      40.024   6.150  26.249  1.00 51.60    -0.204 F 
HETATM    2  O02 MFX G 101      43.106   8.170  22.844  1.00 42.61    -0.286 OA
HETATM    3  N   MFX G 101      41.714   4.715  21.006  1.00 46.25    -0.348 N 
HETATM    4  C11 MFX G 101      39.889   4.555  24.428  1.00 46.11     0.085 A 
HETATM    5  C12 MFX G 101      41.235   5.061  22.413  1.00 44.46     0.084 A 
HETATM    6  C13 MFX G 101      40.325   4.238  23.123  1.00 44.83     0.120 A 
HETATM    7  C14 MFX G 101      41.715   6.241  23.029  1.00 43.01     0.048 A 
HETATM    8  C15 MFX G 101      40.378   5.754  25.018  1.00 46.00     0.141 A 
HETATM    9  C16 MFX G 101      42.648   5.588  20.326  1.00 45.81     0.114 A 
HETATM   10  C17 MFX G 101      41.282   6.574  24.322  1.00 44.16     0.062 A 
HETATM   11  C18 MFX G 101      43.146   6.816  20.975  1.00 45.17     0.107 A 
HETATM   12  C19 MFX G 101      42.693   7.154  22.311  1.00 42.86     0.203 A 
ENDROOT
BRANCH   4  13
HETATM   13  N01 MFX G 101      38.916   3.634  25.064  1.00 47.98    -0.276 NA
HETATM   14  C03 MFX G 101      37.547   3.408  24.291  1.00 55.03     0.102 C 
HETATM   15  C01 MFX G 101      36.977   2.047  24.863  1.00 61.18     0.031 C 
HETATM   16  C02 MFX G 101      37.938   1.566  25.713  1.00 61.49     0.204 C 
HETATM   17  C05 MFX G 101      35.559   2.062  25.424  1.00 60.59     0.009 C 
HETATM   18  N02 MFX G 101      37.797   2.017  27.155  1.00 58.62    -0.069 N 
HETATM   19  C04 MFX G 101      39.320   2.369  25.337  1.00 49.35     0.129 C 
HETATM   20  C10 MFX G 101      36.449   1.862  27.651  1.00 59.20     0.233 C 
HETATM   21 2HN0 MFX G 101      38.048   2.890  27.226  1.00 70.34     0.277 HD
HETATM   22  H02 MFX G 101      38.421   1.454  27.732  1.00  0.00     0.277 HD
HETATM   23  C07 MFX G 101      35.470   2.473  26.813  1.00 61.04     0.028 C 
ENDBRANCH   4  13
BRANCH   6  24
HETATM   24  O01 MFX G 101      39.811   3.056  22.533  1.00 44.82    -0.352 OA
HETATM   25  C   MFX G 101      40.662   1.924  22.738  1.00 42.31     0.210 C 
ENDBRANCH   6  24
BRANCH   3  26
HETATM   26  C06 MFX G 101      41.315   3.530  20.288  1.00 46.49     0.090 A 
HETATM   27  C08 MFX G 101      41.149   3.163  18.818  1.00 47.34     0.028 A 
HETATM   28  C09 MFX G 101      39.926   3.411  19.668  1.00 49.59     0.028 A 
ENDBRANCH   3  26
BRANCH  11  29
HETATM   29  C20 MFX G 101      44.119   7.704  20.213  1.00 48.24     0.214 C 
HETATM   30  O03 MFX G 101      45.275   7.262  19.960  1.00 48.93    -0.644 OA
HETATM   31  O   MFX G 101      43.775   8.856  19.827  1.00 49.20    -0.644 OA
ENDBRANCH  11  29
TORSDOF 4
