REMARK  4 active torsions:
REMARK  status: ('A' for Active; 'I' for Inactive)
REMARK    1  A    between atoms: O01_2  and  C13_22 
REMARK    2  A    between atoms: N01_6  and  C11_20 
REMARK    3  A    between atoms: N_9  and  C06_15 
REMARK    4  A    between atoms: C18_27  and  C20_29 
ROOT
HETATM    1  F   MFX G 101      40.025   6.259  26.205  1.00 51.60    -0.204 F 
HETATM    2  O02 MFX G 101      43.097   8.249  22.774  1.00 42.61    -0.286 OA
HETATM    3  N   MFX G 101      41.795   4.717  21.019  1.00 46.25    -0.348 N 
HETATM    4  C11 MFX G 101      39.941   4.612  24.427  1.00 46.11     0.085 A 
HETATM    5  C12 MFX G 101      41.296   5.092  22.411  1.00 44.46     0.084 A 
HETATM    6  C13 MFX G 101      40.396   4.268  23.135  1.00 44.83     0.120 A 
HETATM    7  C14 MFX G 101      41.745   6.297  22.999  1.00 43.01     0.048 A 
HETATM    8  C15 MFX G 101      40.399   5.837  24.988  1.00 46.00     0.141 A 
HETATM    9  C16 MFX G 101      42.718   5.591  20.324  1.00 45.81     0.114 A 
HETATM   10  C17 MFX G 101      41.293   6.656  24.278  1.00 44.16     0.062 A 
HETATM   11  C18 MFX G 101      43.184   6.846  20.943  1.00 45.17     0.107 A 
HETATM   12  C19 MFX G 101      42.711   7.211  22.266  1.00 42.86     0.203 A 
ENDROOT
BRANCH   4  13
HETATM   13  N01 MFX G 101      38.981   3.688  25.079  1.00 47.98    -0.276 NA
HETATM   14  C03 MFX G 101      37.669   3.336  24.257  1.00 55.03     0.102 C 
HETATM   15  C01 MFX G 101      37.135   1.991  24.897  1.00 61.18     0.031 C 
HETATM   16  C02 MFX G 101      38.072   1.623  25.828  1.00 61.49     0.204 C 
HETATM   17  C05 MFX G 101      35.690   1.971  25.383  1.00 60.59     0.009 C 
HETATM   18  N02 MFX G 101      37.830   2.167  27.224  1.00 58.62    -0.069 N 
HETATM   19  C04 MFX G 101      39.431   2.469  25.464  1.00 49.35     0.129 C 
HETATM   20  C10 MFX G 101      36.467   1.977  27.661  1.00 59.20     0.233 C 
HETATM   21 2HN0 MFX G 101      38.035   3.055  27.243  1.00 70.34     0.277 HD
HETATM   22  H02 MFX G 101      38.449   1.679  27.872  1.00  0.00     0.277 HD
HETATM   23  C07 MFX G 101      35.506   2.475  26.733  1.00 61.04     0.028 C 
ENDBRANCH   4  13
BRANCH   6  24
HETATM   24  O01 MFX G 101      39.913   3.061  22.573  1.00 44.82    -0.352 OA
HETATM   25  C   MFX G 101      40.783   1.952  22.820  1.00 42.31     0.210 C 
ENDBRANCH   6  24
BRANCH   3  26
HETATM   26  C06 MFX G 101      41.428   3.505  20.330  1.00 46.49     0.090 A 
HETATM   27  C08 MFX G 101      41.225   3.112  18.872  1.00 47.34     0.028 A 
HETATM   28  C09 MFX G 101      40.024   3.310  19.765  1.00 49.59     0.028 A 
ENDBRANCH   3  26
BRANCH  11  29
HETATM   29  C20 MFX G 101      44.145   7.734  20.167  1.00 48.24     0.214 C 
HETATM   30  O03 MFX G 101      45.318   7.316  19.952  1.00 48.93    -0.644 OA
HETATM   31  O   MFX G 101      43.776   8.859  19.731  1.00 49.20    -0.644 OA
ENDBRANCH  11  29
TORSDOF 4
