REMARK  4 active torsions:
REMARK  status: ('A' for Active; 'I' for Inactive)
REMARK    1  A    between atoms: O01_2  and  C13_22 
REMARK    2  A    between atoms: N01_6  and  C11_20 
REMARK    3  A    between atoms: N_9  and  C06_15 
REMARK    4  A    between atoms: C18_27  and  C20_29 
ROOT
HETATM    1  F   MFX G 101      40.025   6.168  26.269  1.00 51.60    -0.204 F 
HETATM    2  O02 MFX G 101      43.105   8.189  22.864  1.00 42.61    -0.286 OA
HETATM    3  N   MFX G 101      41.714   4.735  21.025  1.00 46.25    -0.348 N 
HETATM    4  C11 MFX G 101      39.890   4.573  24.447  1.00 46.11     0.085 A 
HETATM    5  C12 MFX G 101      41.236   5.081  22.432  1.00 44.46     0.084 A 
HETATM    6  C13 MFX G 101      40.326   4.256  23.142  1.00 44.83     0.120 A 
HETATM    7  C14 MFX G 101      41.715   6.260  23.048  1.00 43.01     0.048 A 
HETATM    8  C15 MFX G 101      40.379   5.772  25.037  1.00 46.00     0.141 A 
HETATM    9  C16 MFX G 101      42.648   5.609  20.345  1.00 45.81     0.114 A 
HETATM   10  C17 MFX G 101      41.282   6.593  24.341  1.00 44.16     0.062 A 
HETATM   11  C18 MFX G 101      43.146   6.836  20.994  1.00 45.17     0.107 A 
HETATM   12  C19 MFX G 101      42.693   7.174  22.331  1.00 42.86     0.203 A 
ENDROOT
BRANCH   4  13
HETATM   13  N01 MFX G 101      38.918   3.652  25.083  1.00 47.98    -0.276 NA
HETATM   14  C03 MFX G 101      37.574   3.379  24.282  1.00 55.03     0.102 C 
HETATM   15  C01 MFX G 101      37.012   2.024  24.875  1.00 61.18     0.031 C 
HETATM   16  C02 MFX G 101      37.960   1.584  25.763  1.00 61.49     0.204 C 
HETATM   17  C05 MFX G 101      35.580   2.028  25.400  1.00 60.59     0.009 C 
HETATM   18  N02 MFX G 101      37.773   2.071  27.188  1.00 58.62    -0.069 N 
HETATM   19  C04 MFX G 101      39.336   2.402  25.401  1.00 49.35     0.129 C 
HETATM   20  C10 MFX G 101      36.416   1.904  27.653  1.00 59.20     0.233 C 
HETATM   21 2HN0 MFX G 101      38.007   2.950  27.241  1.00 70.34     0.277 HD
HETATM   22  H02 MFX G 101      38.392   1.534  27.796  1.00  0.00     0.277 HD
HETATM   23  C07 MFX G 101      35.449   2.475  26.775  1.00 61.04     0.028 C 
ENDBRANCH   4  13
BRANCH   6  24
HETATM   24  O01 MFX G 101      39.813   3.075  22.552  1.00 44.82    -0.352 OA
HETATM   25  C   MFX G 101      40.656   1.939  22.769  1.00 42.31     0.210 C 
ENDBRANCH   6  24
BRANCH   3  26
HETATM   26  C06 MFX G 101      41.315   3.550  20.306  1.00 46.49     0.090 A 
HETATM   27  C08 MFX G 101      41.093   3.201  18.840  1.00 47.34     0.028 A 
HETATM   28  C09 MFX G 101      39.903   3.401  19.749  1.00 49.59     0.028 A 
ENDBRANCH   3  26
BRANCH  11  29
HETATM   29  C20 MFX G 101      44.118   7.725  20.233  1.00 48.24     0.214 C 
HETATM   30  O03 MFX G 101      45.271   7.279  19.970  1.00 48.93    -0.644 OA
HETATM   31  O   MFX G 101      43.777   8.880  19.856  1.00 49.20    -0.644 OA
ENDBRANCH  11  29
TORSDOF 4
