REMARK  4 active torsions:
REMARK  status: ('A' for Active; 'I' for Inactive)
REMARK    1  A    between atoms: O01_2  and  C13_22 
REMARK    2  A    between atoms: N01_6  and  C11_20 
REMARK    3  A    between atoms: N_9  and  C06_15 
REMARK    4  A    between atoms: C18_27  and  C20_29 
ROOT
HETATM    1  F   MFX G 101      40.023   6.060  26.168  1.00 51.60    -0.204 F 
HETATM    2  O02 MFX G 101      43.127   8.008  22.741  1.00 42.61    -0.286 OA
HETATM    3  N   MFX G 101      41.706   4.542  20.946  1.00 46.25    -0.348 N 
HETATM    4  C11 MFX G 101      39.876   4.443  24.367  1.00 46.11     0.085 A 
HETATM    5  C12 MFX G 101      41.229   4.911  22.348  1.00 44.46     0.084 A 
HETATM    6  C13 MFX G 101      40.310   4.105  23.067  1.00 44.83     0.120 A 
HETATM    7  C14 MFX G 101      41.719   6.094  22.949  1.00 43.01     0.048 A 
HETATM    8  C15 MFX G 101      40.375   5.645  24.942  1.00 46.00     0.141 A 
HETATM    9  C16 MFX G 101      42.649   5.398  20.256  1.00 45.81     0.114 A 
HETATM   10  C17 MFX G 101      41.287   6.448  24.237  1.00 44.16     0.062 A 
HETATM   11  C18 MFX G 101      43.157   6.629  20.889  1.00 45.17     0.107 A 
HETATM   12  C19 MFX G 101      42.706   6.989  22.221  1.00 42.86     0.203 A 
ENDROOT
BRANCH   4  13
HETATM   13  N01 MFX G 101      38.894   3.539  25.014  1.00 47.98    -0.276 NA
HETATM   14  C03 MFX G 101      37.448   3.481  24.359  1.00 55.03     0.102 C 
HETATM   15  C01 MFX G 101      36.825   2.117  24.866  1.00 61.18     0.031 C 
HETATM   16  C02 MFX G 101      37.818   1.495  25.579  1.00 61.49     0.204 C 
HETATM   17  C05 MFX G 101      35.468   2.182  25.560  1.00 60.59     0.009 C 
HETATM   18  N02 MFX G 101      37.840   1.823  27.060  1.00 58.62    -0.069 N 
HETATM   19  C04 MFX G 101      39.219   2.229  25.141  1.00 49.35     0.129 C 
HETATM   20  C10 MFX G 101      36.534   1.720  27.667  1.00 59.20     0.233 C 
HETATM   21 2HN0 MFX G 101      38.165   2.666  27.179  1.00 70.34     0.277 HD
HETATM   22  H02 MFX G 101      38.467   1.167  27.526  1.00  0.00     0.277 HD
HETATM   23  C07 MFX G 101      35.536   2.471  26.981  1.00 61.04     0.028 C 
ENDBRANCH   4  13
BRANCH   6  24
HETATM   24  O01 MFX G 101      39.786   2.921  22.492  1.00 44.82    -0.352 OA
HETATM   25  C   MFX G 101      38.583   3.153  21.752  1.00 42.31     0.210 C 
ENDBRANCH   6  24
BRANCH   3  26
HETATM   26  C06 MFX G 101      41.296   3.352  20.243  1.00 46.49     0.090 A 
HETATM   27  C08 MFX G 101      41.417   2.851  18.809  1.00 47.34     0.028 A 
HETATM   28  C09 MFX G 101      40.087   3.359  19.313  1.00 49.59     0.028 A 
ENDBRANCH   3  26
BRANCH  11  29
HETATM   29  C20 MFX G 101      44.139   7.499  20.118  1.00 48.24     0.214 C 
HETATM   30  O03 MFX G 101      43.770   8.649  19.748  1.00 48.93    -0.644 OA
HETATM   31  O   MFX G 101      45.304   7.087  19.863  1.00 49.20    -0.644 OA
ENDBRANCH  11  29
TORSDOF 4
