REMARK  4 active torsions:
REMARK  status: ('A' for Active; 'I' for Inactive)
REMARK    1  A    between atoms: O01_2  and  C13_22 
REMARK    2  A    between atoms: N01_6  and  C11_20 
REMARK    3  A    between atoms: N_9  and  C06_15 
REMARK    4  A    between atoms: C18_27  and  C20_29 
ROOT
HETATM    1  F   MFX G 101      40.022   6.164  26.282  1.00 51.60    -0.204 F 
HETATM    2  O02 MFX G 101      43.118   8.170  22.881  1.00 42.61    -0.286 OA
HETATM    3  N   MFX G 101      41.735   4.708  21.051  1.00 46.25    -0.348 N 
HETATM    4  C11 MFX G 101      39.895   4.561  24.466  1.00 46.11     0.085 A 
HETATM    5  C12 MFX G 101      41.250   5.059  22.455  1.00 44.46     0.084 A 
HETATM    6  C13 MFX G 101      40.337   4.238  23.164  1.00 44.83     0.120 A 
HETATM    7  C14 MFX G 101      41.727   6.242  23.068  1.00 43.01     0.048 A 
HETATM    8  C15 MFX G 101      40.382   5.763  25.053  1.00 46.00     0.141 A 
HETATM    9  C16 MFX G 101      42.672   5.578  20.372  1.00 45.81     0.114 A 
HETATM   10  C17 MFX G 101      41.289   6.580  24.358  1.00 44.16     0.062 A 
HETATM   11  C18 MFX G 101      43.167   6.809  21.018  1.00 45.17     0.107 A 
HETATM   12  C19 MFX G 101      42.708   7.152  22.351  1.00 42.86     0.203 A 
ENDROOT
BRANCH   4  13
HETATM   13  N01 MFX G 101      38.920   3.642  25.102  1.00 47.98    -0.276 NA
HETATM   14  C03 MFX G 101      37.583   3.361  24.293  1.00 55.03     0.102 C 
HETATM   15  C01 MFX G 101      37.020   2.009  24.893  1.00 61.18     0.031 C 
HETATM   16  C02 MFX G 101      37.962   1.578  25.791  1.00 61.49     0.204 C 
HETATM   17  C05 MFX G 101      35.584   2.014  25.407  1.00 60.59     0.009 C 
HETATM   18  N02 MFX G 101      37.763   2.076  27.211  1.00 58.62    -0.069 N 
HETATM   19  C04 MFX G 101      39.339   2.396  25.433  1.00 49.35     0.129 C 
HETATM   20  C10 MFX G 101      36.403   1.910  27.668  1.00 59.20     0.233 C 
HETATM   21 2HN0 MFX G 101      37.995   2.956  27.259  1.00 70.34     0.277 HD
HETATM   22  H02 MFX G 101      38.379   1.545  27.828  1.00  0.00     0.277 HD
HETATM   23  C07 MFX G 101      35.441   2.471  26.777  1.00 61.04     0.028 C 
ENDBRANCH   4  13
BRANCH   6  24
HETATM   24  O01 MFX G 101      39.826   3.055  22.578  1.00 44.82    -0.352 OA
HETATM   25  C   MFX G 101      40.677   1.923  22.790  1.00 42.31     0.210 C 
ENDBRANCH   6  24
BRANCH   3  26
HETATM   26  C06 MFX G 101      41.339   3.519  20.337  1.00 46.49     0.090 A 
HETATM   27  C08 MFX G 101      41.147   3.157  18.869  1.00 47.34     0.028 A 
HETATM   28  C09 MFX G 101      39.939   3.380  19.748  1.00 49.59     0.028 A 
ENDBRANCH   3  26
BRANCH  11  29
HETATM   29  C20 MFX G 101      44.142   7.694  20.257  1.00 48.24     0.214 C 
HETATM   30  O03 MFX G 101      43.761   8.841  19.889  1.00 48.93    -0.644 OA
HETATM   31  O   MFX G 101      45.315   7.299  20.009  1.00 49.20    -0.644 OA
ENDBRANCH  11  29
TORSDOF 4
