REMARK  4 active torsions:
REMARK  status: ('A' for Active; 'I' for Inactive)
REMARK    1  A    between atoms: O01_2  and  C13_22 
REMARK    2  A    between atoms: N01_6  and  C11_20 
REMARK    3  A    between atoms: N_9  and  C06_15 
REMARK    4  A    between atoms: C18_27  and  C20_29 
ROOT
HETATM    1  F   MFX G 101      39.987   6.120  26.231  1.00 51.60    -0.204 F 
HETATM    2  O02 MFX G 101      43.074   8.136  22.827  1.00 42.61    -0.286 OA
HETATM    3  N   MFX G 101      41.731   4.648  21.015  1.00 46.25    -0.348 N 
HETATM    4  C11 MFX G 101      39.882   4.505  24.425  1.00 46.11     0.085 A 
HETATM    5  C12 MFX G 101      41.239   5.004  22.415  1.00 44.46     0.084 A 
HETATM    6  C13 MFX G 101      40.331   4.178  23.126  1.00 44.83     0.120 A 
HETATM    7  C14 MFX G 101      41.702   6.195  23.022  1.00 43.01     0.048 A 
HETATM    8  C15 MFX G 101      40.355   5.715  25.006  1.00 46.00     0.141 A 
HETATM    9  C16 MFX G 101      42.662   5.523  20.333  1.00 45.81     0.114 A 
HETATM   10  C17 MFX G 101      41.255   6.537  24.308  1.00 44.16     0.062 A 
HETATM   11  C18 MFX G 101      43.143   6.763  20.973  1.00 45.17     0.107 A 
HETATM   12  C19 MFX G 101      42.676   7.111  22.302  1.00 42.86     0.203 A 
ENDROOT
BRANCH   4  13
HETATM   13  N01 MFX G 101      38.914   3.580  25.063  1.00 47.98    -0.276 NA
HETATM   14  C03 MFX G 101      37.483   3.475  24.383  1.00 55.03     0.102 C 
HETATM   15  C01 MFX G 101      36.889   2.100  24.893  1.00 61.18     0.031 C 
HETATM   16  C02 MFX G 101      37.885   1.513  25.630  1.00 61.49     0.204 C 
HETATM   17  C05 MFX G 101      35.518   2.133  25.561  1.00 60.59     0.009 C 
HETATM   18  N02 MFX G 101      37.872   1.856  27.108  1.00 58.62    -0.069 N 
HETATM   19  C04 MFX G 101      39.274   2.281  25.210  1.00 49.35     0.129 C 
HETATM   20  C10 MFX G 101      36.558   1.722  27.693  1.00 59.20     0.233 C 
HETATM   21 2HN0 MFX G 101      38.170   2.709  27.224  1.00 70.34     0.277 HD
HETATM   22  H02 MFX G 101      38.508   1.223  27.592  1.00  0.00     0.277 HD
HETATM   23  C07 MFX G 101      35.552   2.439  26.980  1.00 61.04     0.028 C 
ENDBRANCH   4  13
BRANCH   6  24
HETATM   24  O01 MFX G 101      39.835   2.986  22.545  1.00 44.82    -0.352 OA
HETATM   25  C   MFX G 101      38.696   3.213  21.708  1.00 42.31     0.210 C 
ENDBRANCH   6  24
BRANCH   3  26
HETATM   26  C06 MFX G 101      41.350   3.451  20.307  1.00 46.49     0.090 A 
HETATM   27  C08 MFX G 101      41.661   2.864  18.936  1.00 47.34     0.028 A 
HETATM   28  C09 MFX G 101      40.310   3.490  19.191  1.00 49.59     0.028 A 
ENDBRANCH   3  26
BRANCH  11  29
HETATM   29  C20 MFX G 101      44.112   7.653  20.209  1.00 48.24     0.214 C 
HETATM   30  O03 MFX G 101      43.774   8.845  19.959  1.00 48.93    -0.644 OA
HETATM   31  O   MFX G 101      45.239   7.217  19.845  1.00 49.20    -0.644 OA
ENDBRANCH  11  29
TORSDOF 4
