REMARK  4 active torsions:
REMARK  status: ('A' for Active; 'I' for Inactive)
REMARK    1  A    between atoms: O01_2  and  C13_22 
REMARK    2  A    between atoms: N01_6  and  C11_20 
REMARK    3  A    between atoms: N_9  and  C06_15 
REMARK    4  A    between atoms: C18_27  and  C20_29 
ROOT
HETATM    1  F   MFX G 101      40.024   6.212  26.231  1.00 51.60    -0.204 F 
HETATM    2  O02 MFX G 101      43.038   8.251  22.776  1.00 42.61    -0.286 OA
HETATM    3  N   MFX G 101      41.738   4.723  21.010  1.00 46.25    -0.348 N 
HETATM    4  C11 MFX G 101      39.929   4.578  24.441  1.00 46.11     0.085 A 
HETATM    5  C12 MFX G 101      41.254   5.083  22.412  1.00 44.46     0.084 A 
HETATM    6  C13 MFX G 101      40.369   4.248  23.141  1.00 44.83     0.120 A 
HETATM    7  C14 MFX G 101      41.702   6.287  23.003  1.00 43.01     0.048 A 
HETATM    8  C15 MFX G 101      40.386   5.802  25.006  1.00 46.00     0.141 A 
HETATM    9  C16 MFX G 101      42.645   5.609  20.310  1.00 45.81     0.114 A 
HETATM   10  C17 MFX G 101      41.264   6.633  24.291  1.00 44.16     0.062 A 
HETATM   11  C18 MFX G 101      43.111   6.862  20.933  1.00 45.17     0.107 A 
HETATM   12  C19 MFX G 101      42.653   7.214  22.265  1.00 42.86     0.203 A 
ENDROOT
BRANCH   4  13
HETATM   13  N01 MFX G 101      38.984   3.643  25.098  1.00 47.98    -0.276 NA
HETATM   14  C03 MFX G 101      37.717   3.205  24.248  1.00 55.03     0.102 C 
HETATM   15  C01 MFX G 101      37.214   1.865  24.925  1.00 61.18     0.031 C 
HETATM   16  C02 MFX G 101      38.132   1.574  25.902  1.00 61.49     0.204 C 
HETATM   17  C05 MFX G 101      35.755   1.806  25.363  1.00 60.59     0.009 C 
HETATM   18  N02 MFX G 101      37.820   2.163  27.265  1.00 58.62    -0.069 N 
HETATM   19  C04 MFX G 101      39.468   2.460  25.549  1.00 49.35     0.129 C 
HETATM   20  C10 MFX G 101      36.451   1.935  27.664  1.00 59.20     0.233 C 
HETATM   21 2HN0 MFX G 101      37.988   3.059  27.254  1.00 70.34     0.277 HD
HETATM   22  H02 MFX G 101      38.434   1.728  27.953  1.00  0.00     0.277 HD
HETATM   23  C07 MFX G 101      35.504   2.355  26.683  1.00 61.04     0.028 C 
ENDBRANCH   4  13
BRANCH   6  24
HETATM   24  O01 MFX G 101      39.887   3.042  22.576  1.00 44.82    -0.352 OA
HETATM   25  C   MFX G 101      40.762   1.934  22.813  1.00 42.31     0.210 C 
ENDBRANCH   6  24
BRANCH   3  26
HETATM   26  C06 MFX G 101      41.370   3.513  20.316  1.00 46.49     0.090 A 
HETATM   27  C08 MFX G 101      41.192   3.119  18.856  1.00 47.34     0.028 A 
HETATM   28  C09 MFX G 101      39.975   3.334  19.724  1.00 49.59     0.028 A 
ENDBRANCH   3  26
BRANCH  11  29
HETATM   29  C20 MFX G 101      44.056   7.762  20.151  1.00 48.24     0.214 C 
HETATM   30  O03 MFX G 101      45.125   7.269  19.694  1.00 48.93    -0.644 OA
HETATM   31  O   MFX G 101      43.772   8.975  19.948  1.00 49.20    -0.644 OA
ENDBRANCH  11  29
TORSDOF 4
