REMARK  4 active torsions:
REMARK  status: ('A' for Active; 'I' for Inactive)
REMARK    1  A    between atoms: O01_2  and  C13_22 
REMARK    2  A    between atoms: N01_6  and  C11_20 
REMARK    3  A    between atoms: N_9  and  C06_15 
REMARK    4  A    between atoms: C18_27  and  C20_29 
ROOT
HETATM    1  F   MFX G 101      40.023   6.042  26.246  1.00 51.60    -0.204 F 
HETATM    2  O02 MFX G 101      43.147   8.003  22.844  1.00 42.61    -0.286 OA
HETATM    3  N   MFX G 101      41.711   4.563  21.014  1.00 46.25    -0.348 N 
HETATM    4  C11 MFX G 101      39.871   4.442  24.430  1.00 46.11     0.085 A 
HETATM    5  C12 MFX G 101      41.232   4.921  22.418  1.00 44.46     0.084 A 
HETATM    6  C13 MFX G 101      40.307   4.114  23.127  1.00 44.83     0.120 A 
HETATM    7  C14 MFX G 101      41.727   6.096  23.031  1.00 43.01     0.048 A 
HETATM    8  C15 MFX G 101      40.376   5.636  25.017  1.00 46.00     0.141 A 
HETATM    9  C16 MFX G 101      42.661   5.420  20.334  1.00 45.81     0.114 A 
HETATM   10  C17 MFX G 101      41.295   6.440  24.321  1.00 44.16     0.062 A 
HETATM   11  C18 MFX G 101      43.175   6.642  20.980  1.00 45.17     0.107 A 
HETATM   12  C19 MFX G 101      42.722   6.992  22.314  1.00 42.86     0.203 A 
ENDROOT
BRANCH   4  13
HETATM   13  N01 MFX G 101      38.883   3.538  25.065  1.00 47.98    -0.276 NA
HETATM   14  C03 MFX G 101      37.453   3.459  24.379  1.00 55.03     0.102 C 
HETATM   15  C01 MFX G 101      36.830   2.097  24.889  1.00 61.18     0.031 C 
HETATM   16  C02 MFX G 101      37.812   1.492  25.631  1.00 61.49     0.204 C 
HETATM   17  C05 MFX G 101      35.457   2.158  25.551  1.00 60.59     0.009 C 
HETATM   18  N02 MFX G 101      37.798   1.838  27.108  1.00 58.62    -0.069 N 
HETATM   19  C04 MFX G 101      39.216   2.233  25.216  1.00 49.35     0.129 C 
HETATM   20  C10 MFX G 101      36.480   1.731  27.688  1.00 59.20     0.233 C 
HETATM   21 2HN0 MFX G 101      38.113   2.685  27.224  1.00 70.34     0.277 HD
HETATM   22  H02 MFX G 101      38.420   1.193  27.596  1.00  0.00     0.277 HD
HETATM   23  C07 MFX G 101      35.491   2.465  26.970  1.00 61.04     0.028 C 
ENDBRANCH   4  13
BRANCH   6  24
HETATM   24  O01 MFX G 101      39.779   2.938  22.540  1.00 44.82    -0.352 OA
HETATM   25  C   MFX G 101      38.593   3.187  21.779  1.00 42.31     0.210 C 
ENDBRANCH   6  24
BRANCH   3  26
HETATM   26  C06 MFX G 101      41.297   3.381  20.299  1.00 46.49     0.090 A 
HETATM   27  C08 MFX G 101      41.499   2.850  18.885  1.00 47.34     0.028 A 
HETATM   28  C09 MFX G 101      40.162   3.430  19.281  1.00 49.59     0.028 A 
ENDBRANCH   3  26
BRANCH  11  29
HETATM   29  C20 MFX G 101      44.163   7.513  20.219  1.00 48.24     0.214 C 
HETATM   30  O03 MFX G 101      43.772   8.630  19.777  1.00 48.93    -0.644 OA
HETATM   31  O   MFX G 101      45.355   7.136  20.045  1.00 49.20    -0.644 OA
ENDBRANCH  11  29
TORSDOF 4
