REMARK  4 active torsions:
REMARK  status: ('A' for Active; 'I' for Inactive)
REMARK    1  A    between atoms: O01_2  and  C13_22 
REMARK    2  A    between atoms: N01_6  and  C11_20 
REMARK    3  A    between atoms: N_9  and  C06_15 
REMARK    4  A    between atoms: C18_27  and  C20_29 
ROOT
HETATM    1  F   MFX G 101      40.024   6.107  26.328  1.00 51.60    -0.204 F 
HETATM    2  O02 MFX G 101      43.128   8.138  22.948  1.00 42.61    -0.286 OA
HETATM    3  N   MFX G 101      41.697   4.724  21.064  1.00 46.25    -0.348 N 
HETATM    4  C11 MFX G 101      39.871   4.538  24.485  1.00 46.11     0.085 A 
HETATM    5  C12 MFX G 101      41.222   5.057  22.476  1.00 44.46     0.084 A 
HETATM    6  C13 MFX G 101      40.303   4.234  23.175  1.00 44.83     0.120 A 
HETATM    7  C14 MFX G 101      41.716   6.222  23.108  1.00 43.01     0.048 A 
HETATM    8  C15 MFX G 101      40.374   5.724  25.090  1.00 46.00     0.141 A 
HETATM    9  C16 MFX G 101      42.641   5.596  20.396  1.00 45.81     0.114 A 
HETATM   10  C17 MFX G 101      41.287   6.543  24.405  1.00 44.16     0.062 A 
HETATM   11  C18 MFX G 101      43.153   6.809  21.061  1.00 45.17     0.107 A 
HETATM   12  C19 MFX G 101      42.704   7.134  22.403  1.00 42.86     0.203 A 
ENDROOT
BRANCH   4  13
HETATM   13  N01 MFX G 101      38.888   3.620  25.108  1.00 47.98    -0.276 NA
HETATM   14  C03 MFX G 101      37.531   3.392  24.315  1.00 55.03     0.102 C 
HETATM   15  C01 MFX G 101      36.951   2.033  24.882  1.00 61.18     0.031 C 
HETATM   16  C02 MFX G 101      37.899   1.555  25.749  1.00 61.49     0.204 C 
HETATM   17  C05 MFX G 101      35.525   2.050  25.421  1.00 60.59     0.009 C 
HETATM   18  N02 MFX G 101      37.735   2.011  27.187  1.00 58.62    -0.069 N 
HETATM   19  C04 MFX G 101      39.286   2.356  25.392  1.00 49.35     0.129 C 
HETATM   20  C10 MFX G 101      36.380   1.858  27.663  1.00 59.20     0.233 C 
HETATM   21 2HN0 MFX G 101      37.986   2.884  27.259  1.00 70.34     0.277 HD
HETATM   22  H02 MFX G 101      38.350   1.449  27.776  1.00  0.00     0.277 HD
HETATM   23  C07 MFX G 101      35.414   2.467  26.808  1.00 61.04     0.028 C 
ENDBRANCH   4  13
BRANCH   6  24
HETATM   24  O01 MFX G 101      39.776   3.067  22.570  1.00 44.82    -0.352 OA
HETATM   25  C   MFX G 101      40.614   1.922  22.759  1.00 42.31     0.210 C 
ENDBRANCH   6  24
BRANCH   3  26
HETATM   26  C06 MFX G 101      41.284   3.553  20.330  1.00 46.49     0.090 A 
HETATM   27  C08 MFX G 101      41.083   3.219  18.858  1.00 47.34     0.028 A 
HETATM   28  C09 MFX G 101      39.880   3.442  19.744  1.00 49.59     0.028 A 
ENDBRANCH   3  26
BRANCH  11  29
HETATM   29  C20 MFX G 101      44.135   7.697  20.312  1.00 48.24     0.214 C 
HETATM   30  O03 MFX G 101      45.319   7.286  20.145  1.00 48.93    -0.644 OA
HETATM   31  O   MFX G 101      43.773   8.814  19.851  1.00 49.20    -0.644 OA
ENDBRANCH  11  29
TORSDOF 4
