REMARK  4 active torsions:
REMARK  status: ('A' for Active; 'I' for Inactive)
REMARK    1  A    between atoms: O01_2  and  C13_22 
REMARK    2  A    between atoms: N01_6  and  C11_20 
REMARK    3  A    between atoms: N_9  and  C06_15 
REMARK    4  A    between atoms: C18_27  and  C20_29 
ROOT
HETATM    1  F   MFX G 101      40.002   6.185  26.196  1.00 51.60    -0.204 F 
HETATM    2  O02 MFX G 101      43.113   8.211  22.821  1.00 42.61    -0.286 OA
HETATM    3  N   MFX G 101      41.872   4.673  21.036  1.00 46.25    -0.348 N 
HETATM    4  C11 MFX G 101      39.962   4.542  24.412  1.00 46.11     0.085 A 
HETATM    5  C12 MFX G 101      41.346   5.039  22.421  1.00 44.46     0.084 A 
HETATM    6  C13 MFX G 101      40.441   4.206  23.127  1.00 44.83     0.120 A 
HETATM    7  C14 MFX G 101      41.775   6.247  23.019  1.00 43.01     0.048 A 
HETATM    8  C15 MFX G 101      40.400   5.769  24.984  1.00 46.00     0.141 A 
HETATM    9  C16 MFX G 101      42.798   5.556  20.358  1.00 45.81     0.114 A 
HETATM   10  C17 MFX G 101      41.298   6.599  24.291  1.00 44.16     0.062 A 
HETATM   11  C18 MFX G 101      43.243   6.814  20.989  1.00 45.17     0.107 A 
HETATM   12  C19 MFX G 101      42.745   7.171  22.304  1.00 42.86     0.203 A 
ENDROOT
BRANCH   4  13
HETATM   13  N01 MFX G 101      38.999   3.609  25.046  1.00 47.98    -0.276 NA
HETATM   14  C03 MFX G 101      37.572   3.492  24.360  1.00 55.03     0.102 C 
HETATM   15  C01 MFX G 101      36.988   2.111  24.867  1.00 61.18     0.031 C 
HETATM   16  C02 MFX G 101      37.987   1.531  25.606  1.00 61.49     0.204 C 
HETATM   17  C05 MFX G 101      35.615   2.131  25.530  1.00 60.59     0.009 C 
HETATM   18  N02 MFX G 101      37.965   1.873  27.085  1.00 58.62    -0.069 N 
HETATM   19  C04 MFX G 101      39.370   2.313  25.192  1.00 49.35     0.129 C 
HETATM   20  C10 MFX G 101      36.650   1.726  27.664  1.00 59.20     0.233 C 
HETATM   21 2HN0 MFX G 101      38.256   2.728  27.203  1.00 70.34     0.277 HD
HETATM   22  H02 MFX G 101      38.605   1.244  27.570  1.00  0.00     0.277 HD
HETATM   23  C07 MFX G 101      35.640   2.435  26.949  1.00 61.04     0.028 C 
ENDBRANCH   4  13
BRANCH   6  24
HETATM   24  O01 MFX G 101      39.978   2.996  22.554  1.00 44.82    -0.352 OA
HETATM   25  C   MFX G 101      38.814   3.180  21.743  1.00 42.31     0.210 C 
ENDBRANCH   6  24
BRANCH   3  26
HETATM   26  C06 MFX G 101      41.526   3.459  20.338  1.00 46.49     0.090 A 
HETATM   27  C08 MFX G 101      41.883   2.853  18.986  1.00 47.34     0.028 A 
HETATM   28  C09 MFX G 101      40.518   3.465  19.193  1.00 49.59     0.028 A 
ENDBRANCH   3  26
BRANCH  11  29
HETATM   29  C20 MFX G 101      44.209   7.712  20.230  1.00 48.24     0.214 C 
HETATM   30  O03 MFX G 101      43.781   8.803  19.759  1.00 48.93    -0.644 OA
HETATM   31  O   MFX G 101      45.419   7.382  20.087  1.00 49.20    -0.644 OA
ENDBRANCH  11  29
TORSDOF 4
