REMARK  4 active torsions:
REMARK  status: ('A' for Active; 'I' for Inactive)
REMARK    1  A    between atoms: O01_2  and  C13_22 
REMARK    2  A    between atoms: N01_6  and  C11_20 
REMARK    3  A    between atoms: N_9  and  C06_15 
REMARK    4  A    between atoms: C18_27  and  C20_29 
ROOT
HETATM    1  F   MFX G 101      40.024   6.246  26.219  1.00 51.60    -0.204 F 
HETATM    2  O02 MFX G 101      43.088   8.252  22.790  1.00 42.61    -0.286 OA
HETATM    3  N   MFX G 101      41.776   4.733  21.018  1.00 46.25    -0.348 N 
HETATM    4  C11 MFX G 101      39.932   4.610  24.432  1.00 46.11     0.085 A 
HETATM    5  C12 MFX G 101      41.281   5.100  22.414  1.00 44.46     0.084 A 
HETATM    6  C13 MFX G 101      40.382   4.274  23.136  1.00 44.83     0.120 A 
HETATM    7  C14 MFX G 101      41.734   6.301  23.008  1.00 43.01     0.048 A 
HETATM    8  C15 MFX G 101      40.394   5.831  24.998  1.00 46.00     0.141 A 
HETATM    9  C16 MFX G 101      42.698   5.609  20.325  1.00 45.81     0.114 A 
HETATM   10  C17 MFX G 101      41.286   6.653  24.291  1.00 44.16     0.062 A 
HETATM   11  C18 MFX G 101      43.167   6.860  20.951  1.00 45.17     0.107 A 
HETATM   12  C19 MFX G 101      42.699   7.218  22.277  1.00 42.86     0.203 A 
ENDROOT
BRANCH   4  13
HETATM   13  N01 MFX G 101      38.973   3.684  25.081  1.00 47.98    -0.276 NA
HETATM   14  C03 MFX G 101      37.656   3.341  24.263  1.00 55.03     0.102 C 
HETATM   15  C01 MFX G 101      37.122   1.993  24.896  1.00 61.18     0.031 C 
HETATM   16  C02 MFX G 101      38.062   1.616  25.820  1.00 61.49     0.204 C 
HETATM   17  C05 MFX G 101      35.679   1.973  25.389  1.00 60.59     0.009 C 
HETATM   18  N02 MFX G 101      37.829   2.150  27.221  1.00 58.62    -0.069 N 
HETATM   19  C04 MFX G 101      39.421   2.461  25.456  1.00 49.35     0.129 C 
HETATM   20  C10 MFX G 101      36.467   1.960  27.663  1.00 59.20     0.233 C 
HETATM   21 2HN0 MFX G 101      38.035   3.037  27.245  1.00 70.34     0.277 HD
HETATM   22  H02 MFX G 101      38.449   1.656  27.862  1.00  0.00     0.277 HD
HETATM   23  C07 MFX G 101      35.503   2.467  26.743  1.00 61.04     0.028 C 
ENDBRANCH   4  13
BRANCH   6  24
HETATM   24  O01 MFX G 101      39.896   3.070  22.569  1.00 44.82    -0.352 OA
HETATM   25  C   MFX G 101      40.761   1.957  22.813  1.00 42.31     0.210 C 
ENDBRANCH   6  24
BRANCH   3  26
HETATM   26  C06 MFX G 101      41.404   3.525  20.323  1.00 46.49     0.090 A 
HETATM   27  C08 MFX G 101      41.204   3.138  18.863  1.00 47.34     0.028 A 
HETATM   28  C09 MFX G 101      40.001   3.340  19.754  1.00 49.59     0.028 A 
ENDBRANCH   3  26
BRANCH  11  29
HETATM   29  C20 MFX G 101      44.127   7.750  20.176  1.00 48.24     0.214 C 
HETATM   30  O03 MFX G 101      43.770   8.930  19.897  1.00 48.93    -0.644 OA
HETATM   31  O   MFX G 101      45.265   7.327  19.831  1.00 49.20    -0.644 OA
ENDBRANCH  11  29
TORSDOF 4
