REMARK  4 active torsions:
REMARK  status: ('A' for Active; 'I' for Inactive)
REMARK    1  A    between atoms: O01_2  and  C13_22 
REMARK    2  A    between atoms: N01_6  and  C11_20 
REMARK    3  A    between atoms: N_9  and  C06_15 
REMARK    4  A    between atoms: C18_27  and  C20_29 
ROOT
HETATM    1  F   MFX G 101      40.025   6.419  26.182  1.00 51.60    -0.204 F 
HETATM    2  O02 MFX G 101      43.181   8.675  22.999  1.00 42.61    -0.286 OA
HETATM    3  N   MFX G 101      42.111   5.177  21.032  1.00 46.25    -0.348 N 
HETATM    4  C11 MFX G 101      40.096   4.851  24.333  1.00 46.11     0.085 A 
HETATM    5  C12 MFX G 101      41.528   5.470  22.412  1.00 44.46     0.084 A 
HETATM    6  C13 MFX G 101      40.628   4.582  23.053  1.00 44.83     0.120 A 
HETATM    7  C14 MFX G 101      41.899   6.665  23.072  1.00 43.01     0.048 A 
HETATM    8  C15 MFX G 101      40.476   6.066  24.969  1.00 46.00     0.141 A 
HETATM    9  C16 MFX G 101      43.031   6.116  20.423  1.00 45.81     0.114 A 
HETATM   10  C17 MFX G 101      41.370   6.950  24.341  1.00 44.16     0.062 A 
HETATM   11  C18 MFX G 101      43.415   7.359  21.118  1.00 45.17     0.107 A 
HETATM   12  C19 MFX G 101      42.863   7.647  22.429  1.00 42.86     0.203 A 
ENDROOT
BRANCH   4  13
HETATM   13  N01 MFX G 101      39.143   3.863  24.896  1.00 47.98    -0.276 NA
HETATM   14  C03 MFX G 101      37.832   3.582  24.045  1.00 55.03     0.102 C 
HETATM   15  C01 MFX G 101      37.308   2.178  24.556  1.00 61.18     0.031 C 
HETATM   16  C02 MFX G 101      38.248   1.730  25.447  1.00 61.49     0.204 C 
HETATM   17  C05 MFX G 101      35.864   2.103  25.039  1.00 60.59     0.009 C 
HETATM   18  N02 MFX G 101      38.005   2.138  26.888  1.00 58.62    -0.069 N 
HETATM   19  C04 MFX G 101      39.601   2.616  25.164  1.00 49.35     0.129 C 
HETATM   20  C10 MFX G 101      36.644   1.898  27.307  1.00 59.20     0.233 C 
HETATM   21 2HN0 MFX G 101      38.204   3.021  26.991  1.00 70.34     0.277 HD
HETATM   22  H02 MFX G 101      38.628   1.595  27.486  1.00  0.00     0.277 HD
HETATM   23  C07 MFX G 101      35.679   2.475  26.430  1.00 61.04     0.028 C 
ENDBRANCH   4  13
BRANCH   6  24
HETATM   24  O01 MFX G 101      40.222   3.383  22.417  1.00 44.82    -0.352 OA
HETATM   25  C   MFX G 101      39.185   3.594  21.454  1.00 42.31     0.210 C 
ENDBRANCH   6  24
BRANCH   3  26
HETATM   26  C06 MFX G 101      41.827   3.984  20.275  1.00 46.49     0.090 A 
HETATM   27  C08 MFX G 101      42.300   2.536  20.326  1.00 47.34     0.028 A 
HETATM   28  C09 MFX G 101      42.813   3.451  19.239  1.00 49.59     0.028 A 
ENDBRANCH   3  26
BRANCH  11  29
HETATM   29  C20 MFX G 101      44.377   8.316  20.430  1.00 48.24     0.214 C 
HETATM   30  O03 MFX G 101      43.904   9.304  19.800  1.00 48.93    -0.644 OA
HETATM   31  O   MFX G 101      45.624   8.138  20.499  1.00 49.20    -0.644 OA
ENDBRANCH  11  29
TORSDOF 4
