REMARK  4 active torsions:
REMARK  status: ('A' for Active; 'I' for Inactive)
REMARK    1  A    between atoms: O_3  and  C_24 
REMARK    2  A    between atoms: N_5  and  C_8 
REMARK    3  A    between atoms: N_6  and  C_15 
REMARK    4  A    between atoms: C_18  and  C_24 
ROOT
ATOM      1  F           0      42.695  29.653  22.959  0.00  0.00    -0.204 F 
ATOM      2  O           0      42.618  34.430  21.374  0.00  0.00    -0.286 OA
ATOM      3  N           0      46.436  33.153  20.731  0.00  0.00    -0.350 N 
ATOM      4  C           0      45.505  32.239  21.301  0.00  0.00     0.051 A 
ATOM      5  C           0      46.028  34.434  20.414  0.00  0.00     0.114 A 
ATOM      6  C           0      44.176  32.654  21.535  0.00  0.00     0.045 A 
ATOM      7  C           0      45.852  30.922  21.648  0.00  0.00     0.063 A 
ATOM      8  C           0      44.909  30.053  22.205  0.00  0.00     0.071 A 
ATOM      9  C           0      44.796  34.928  20.594  0.00  0.00     0.104 A 
ATOM     10  C           0      43.763  34.039  21.185  0.00  0.00     0.202 A 
ATOM     11  C           0      43.232  31.783  22.093  0.00  0.00     0.062 A 
ATOM     12  C           0      43.604  30.482  22.426  0.00  0.00     0.143 A 
ENDROOT
BRANCH   8  13
ATOM     13  N           0      45.282  28.748  22.541  0.00  0.00    -0.375 N 
ATOM     14  C           0      46.672  28.341  22.295  0.00  0.00     0.153 C 
ATOM     15  C           0      46.780  26.818  22.221  0.00  0.00     0.289 C 
ATOM     16  N           0      46.198  26.185  23.403  0.00  0.00     0.086 N 
ATOM     17  C           0      44.786  26.545  23.523  0.00  0.00     0.289 C 
ATOM     18  H           0      46.280  25.172  23.317  0.00  0.00     0.316 HD
ATOM     19  C           0      44.603  28.058  23.643  0.00  0.00     0.153 C 
ENDBRANCH   8  13
BRANCH   3  20
ATOM     20  C           0      47.840  32.768  20.467  0.00  0.00     0.090 A 
ATOM     21  C           0      48.161  31.561  19.650  0.00  0.00     0.028 A 
ATOM     22  C           0      48.436  32.934  19.109  0.00  0.00     0.028 A 
ENDBRANCH   3  20
BRANCH   9  23
ATOM     23  C           0      44.539  36.314  20.200  0.00  0.00     0.181 C 
ATOM     24  O           0      45.334  37.023  19.610  0.00  0.00    -0.646 OA
BRANCH  23  25
ATOM     25  O           0      43.299  36.674  20.592  0.00  0.00    -0.772 OA
ATOM     26  H           0      43.061  36.290  21.464  0.00  0.00     0.167 HD
ENDBRANCH  23  25
ENDBRANCH   9  23
TORSDOF 4
