REMARK  4 active torsions:
REMARK  status: ('A' for Active; 'I' for Inactive)
REMARK    1  A    between atoms: O_3  and  C_24 
REMARK    2  A    between atoms: N_5  and  C_8 
REMARK    3  A    between atoms: N_6  and  C_15 
REMARK    4  A    between atoms: C_18  and  C_24 
ROOT
ATOM      1  F           0      38.918  27.118  23.104  0.00  0.00    -0.204 F 
ATOM      2  O           0      43.706  28.235  22.027  0.00  0.00    -0.286 OA
ATOM      3  N           0      43.889  24.929  24.405  0.00  0.00    -0.350 N 
ATOM      4  C           0      42.609  25.465  24.091  0.00  0.00     0.051 A 
ATOM      5  C           0      45.025  25.535  23.902  0.00  0.00     0.114 A 
ATOM      6  C           0      42.515  26.609  23.270  0.00  0.00     0.045 A 
ATOM      7  C           0      41.414  24.900  24.568  0.00  0.00     0.063 A 
ATOM      8  C           0      40.174  25.455  24.237  0.00  0.00     0.071 A 
ATOM      9  C           0      45.048  26.620  23.117  0.00  0.00     0.104 A 
ATOM     10  C           0      43.752  27.242  22.743  0.00  0.00     0.202 A 
ATOM     11  C           0      41.273  27.164  22.939  0.00  0.00     0.062 A 
ATOM     12  C           0      40.104  26.583  23.426  0.00  0.00     0.143 A 
ENDROOT
BRANCH   8  13
ATOM     13  N           0      39.001  24.872  24.727  0.00  0.00    -0.375 N 
ATOM     14  C           0      38.507  23.654  24.069  0.00  0.00     0.153 C 
ATOM     15  C           0      37.019  23.455  24.359  0.00  0.00     0.289 C 
ATOM     16  N           0      36.748  23.481  25.795  0.00  0.00     0.086 N 
ATOM     17  C           0      37.163  24.763  26.363  0.00  0.00     0.289 C 
ATOM     18  H           0      35.748  23.353  25.950  0.00  0.00     0.316 HD
ATOM     19  C           0      38.655  25.012  26.146  0.00  0.00     0.153 C 
ENDBRANCH   8  13
BRANCH   3  20
ATOM     20  C           0      44.042  23.732  25.261  0.00  0.00     0.090 A 
ATOM     21  C           0      45.376  23.349  25.809  0.00  0.00     0.028 A 
ATOM     22  C           0      44.304  23.865  26.724  0.00  0.00     0.028 A 
ENDBRANCH   3  20
BRANCH   9  23
ATOM     23  C           0      46.346  27.129  22.675  0.00  0.00     0.181 C 
ATOM     24  O           0      47.280  27.378  23.417  0.00  0.00    -0.646 OA
BRANCH  23  25
ATOM     25  O           0      46.343  27.278  21.333  0.00  0.00    -0.772 OA
ATOM     26  H           0      45.570  27.798  21.022  0.00  0.00     0.167 HD
ENDBRANCH  23  25
ENDBRANCH   9  23
TORSDOF 4
