REMARK  4 active torsions:
REMARK  status: ('A' for Active; 'I' for Inactive)
REMARK    1  A    between atoms: O_3  and  C_24 
REMARK    2  A    between atoms: N_5  and  C_8 
REMARK    3  A    between atoms: N_6  and  C_15 
REMARK    4  A    between atoms: C_18  and  C_24 
ROOT
ATOM      1  F           0      39.861   5.513  26.185  0.00  0.00    -0.204 F 
ATOM      2  O           0      43.113   7.609  22.964  0.00  0.00    -0.286 OA
ATOM      3  N           0      41.829   4.206  21.123  0.00  0.00    -0.350 N 
ATOM      4  C           0      41.311   4.513  22.413  0.00  0.00     0.051 A 
ATOM      5  C           0      42.743   5.059  20.534  0.00  0.00     0.114 A 
ATOM      6  C           0      41.738   5.685  23.074  0.00  0.00     0.045 A 
ATOM      7  C           0      40.380   3.691  23.069  0.00  0.00     0.063 A 
ATOM      8  C           0      39.893   4.026  24.336  0.00  0.00     0.071 A 
ATOM      9  C           0      43.213   6.191  21.072  0.00  0.00     0.104 A 
ATOM     10  C           0      42.723   6.584  22.418  0.00  0.00     0.202 A 
ATOM     11  C           0      41.250   6.020  24.343  0.00  0.00     0.062 A 
ATOM     12  C           0      40.326   5.186  24.971  0.00  0.00     0.143 A 
ENDROOT
BRANCH   8  13
ATOM     13  N           0      38.967   3.189  24.967  0.00  0.00    -0.375 N 
ATOM     14  C           0      39.059   3.030  26.424  0.00  0.00     0.153 C 
ATOM     15  C           0      38.359   1.745  26.869  0.00  0.00     0.289 C 
ATOM     16  N           0      36.986   1.688  26.372  0.00  0.00     0.086 N 
ATOM     17  C           0      36.976   1.740  24.911  0.00  0.00     0.289 C 
ATOM     18  H           0      36.553   0.817  26.679  0.00  0.00     0.316 HD
ATOM     19  C           0      37.626   3.023  24.393  0.00  0.00     0.153 C 
ENDBRANCH   8  13
BRANCH   3  20
ATOM     20  C           0      41.414   2.991  20.387  0.00  0.00     0.090 A 
ATOM     21  C           0      40.118   2.949  19.650  0.00  0.00     0.028 A 
ATOM     22  C           0      41.415   2.961  18.895  0.00  0.00     0.028 A 
ENDBRANCH   3  20
BRANCH   9  23
ATOM     23  C           0      44.181   6.975  20.305  0.00  0.00     0.181 C 
ATOM     24  O           0      45.209   6.528  19.827  0.00  0.00    -0.646 OA
BRANCH  23  25
ATOM     25  O           0      43.760   8.254  20.214  0.00  0.00    -0.772 OA
ATOM     26  H           0      43.475   8.611  21.083  0.00  0.00     0.167 HD
ENDBRANCH  23  25
ENDBRANCH   9  23
TORSDOF 4
