REMARK  4 active torsions:
REMARK  status: ('A' for Active; 'I' for Inactive)
REMARK    1  A    between atoms: O_3  and  C_24 
REMARK    2  A    between atoms: N_5  and  C_8 
REMARK    3  A    between atoms: N_6  and  C_15 
REMARK    4  A    between atoms: C_18  and  C_24 
ROOT
ATOM      1  F           0      38.918  27.115  23.219  0.00  0.00    -0.204 F 
ATOM      2  O           0      43.619  28.580  22.178  0.00  0.00    -0.286 OA
ATOM      3  N           0      44.011  24.971  24.034  0.00  0.00    -0.350 N 
ATOM      4  C           0      42.701  25.493  23.841  0.00  0.00     0.051 A 
ATOM      5  C           0      45.104  25.692  23.593  0.00  0.00     0.114 A 
ATOM      6  C           0      42.535  26.740  23.201  0.00  0.00     0.045 A 
ATOM      7  C           0      41.546  24.814  24.264  0.00  0.00     0.063 A 
ATOM      8  C           0      40.275  25.358  24.056  0.00  0.00     0.071 A 
ATOM      9  C           0      45.059  26.880  22.977  0.00  0.00     0.104 A 
ATOM     10  C           0      43.728  27.496  22.737  0.00  0.00     0.202 A 
ATOM     11  C           0      41.262  27.285  22.993  0.00  0.00     0.062 A 
ATOM     12  C           0      40.134  26.589  23.423  0.00  0.00     0.143 A 
ENDROOT
BRANCH   8  13
ATOM     13  N           0      39.143  24.660  24.488  0.00  0.00    -0.375 N 
ATOM     14  C           0      38.440  25.153  25.680  0.00  0.00     0.153 C 
ATOM     15  C           0      37.591  24.043  26.300  0.00  0.00     0.289 C 
ATOM     16  N           0      36.695  23.444  25.312  0.00  0.00     0.086 N 
ATOM     17  C           0      37.468  22.876  24.209  0.00  0.00     0.289 C 
ATOM     18  H           0      36.151  22.704  25.757  0.00  0.00     0.316 HD
ATOM     19  C           0      38.314  23.942  23.513  0.00  0.00     0.153 C 
ENDBRANCH   8  13
BRANCH   3  20
ATOM     20  C           0      44.239  23.669  24.698  0.00  0.00     0.090 A 
ATOM     21  C           0      45.505  23.401  25.441  0.00  0.00     0.028 A 
ATOM     22  C           0      44.210  23.553  26.186  0.00  0.00     0.028 A 
ENDBRANCH   3  20
BRANCH   9  23
ATOM     23  C           0      46.321  27.504  22.578  0.00  0.00     0.181 C 
ATOM     24  O           0      47.180  26.959  21.909  0.00  0.00    -0.646 OA
BRANCH  23  25
ATOM     25  O           0      46.379  28.762  23.064  0.00  0.00    -0.772 OA
ATOM     26  H           0      45.589  29.290  22.817  0.00  0.00     0.167 HD
ENDBRANCH  23  25
ENDBRANCH   9  23
TORSDOF 4
