REMARK  4 active torsions:
REMARK  status: ('A' for Active; 'I' for Inactive)
REMARK    1  A    between atoms: O_3  and  C_24 
REMARK    2  A    between atoms: N_5  and  C_8 
REMARK    3  A    between atoms: N_6  and  C_15 
REMARK    4  A    between atoms: C_18  and  C_24 
ROOT
ATOM      1  F           0      34.920 -12.444   1.305  0.00  0.00    -0.204 F 
ATOM      2  O           0      31.629 -15.478   3.607  0.00  0.00    -0.286 OA
ATOM      3  N           0      31.413 -11.941   5.624  0.00  0.00    -0.350 N 
ATOM      4  C           0      32.316 -12.040   4.529  0.00  0.00     0.051 A 
ATOM      5  C           0      30.641 -13.033   5.973  0.00  0.00     0.114 A 
ATOM      6  C           0      32.412 -13.253   3.812  0.00  0.00     0.045 A 
ATOM      7  C           0      33.130 -10.970   4.120  0.00  0.00     0.063 A 
ATOM      8  C           0      34.005 -11.105   3.038  0.00  0.00     0.071 A 
ATOM      9  C           0      30.655 -14.225   5.363  0.00  0.00     0.104 A 
ATOM     10  C           0      31.571 -14.412   4.209  0.00  0.00     0.202 A 
ATOM     11  C           0      33.288 -13.387   2.728  0.00  0.00     0.062 A 
ATOM     12  C           0      34.084 -12.309   2.345  0.00  0.00     0.143 A 
ENDROOT
BRANCH   8  13
ATOM     13  N           0      34.804 -10.024   2.653  0.00  0.00    -0.375 N 
ATOM     14  C           0      35.880 -10.269   1.683  0.00  0.00     0.153 C 
ATOM     15  C           0      36.938  -9.169   1.766  0.00  0.00     0.289 C 
ATOM     16  N           0      36.338  -7.843   1.634  0.00  0.00     0.086 N 
ATOM     17  C           0      35.358  -7.625   2.696  0.00  0.00     0.289 C 
ATOM     18  H           0      37.070  -7.135   1.701  0.00  0.00     0.316 HD
ATOM     19  C           0      34.243  -8.668   2.649  0.00  0.00     0.153 C 
ENDBRANCH   8  13
BRANCH   3  20
ATOM     20  C           0      31.274 -10.694   6.407  0.00  0.00     0.090 A 
ATOM     21  C           0      30.011  -9.902   6.367  0.00  0.00     0.028 A 
ATOM     22  C           0      30.399 -10.641   7.614  0.00  0.00     0.028 A 
ENDBRANCH   3  20
BRANCH   9  23
ATOM     23  C           0      29.767 -15.274   5.868  0.00  0.00     0.181 C 
ATOM     24  O           0      29.694 -15.614   7.035  0.00  0.00    -0.646 OA
BRANCH  23  25
ATOM     25  O           0      29.055 -15.796   4.847  0.00  0.00    -0.772 OA
ATOM     26  H           0      29.456 -15.591   3.974  0.00  0.00     0.167 HD
ENDBRANCH  23  25
ENDBRANCH   9  23
TORSDOF 4
