REMARK  4 active torsions:
REMARK  status: ('A' for Active; 'I' for Inactive)
REMARK    1  A    between atoms: O_3  and  C_24 
REMARK    2  A    between atoms: N_5  and  C_8 
REMARK    3  A    between atoms: N_6  and  C_15 
REMARK    4  A    between atoms: C_18  and  C_24 
ROOT
ATOM      1  F           0      43.532  11.020  18.690  0.00  0.00    -0.204 F 
ATOM      2  O           0      41.759  14.552  15.573  0.00  0.00    -0.286 OA
ATOM      3  N           0      42.456  11.299  13.216  0.00  0.00    -0.350 N 
ATOM      4  C           0      42.741  11.199  14.607  0.00  0.00     0.051 A 
ATOM      5  C           0      41.957  12.482  12.705  0.00  0.00     0.114 A 
ATOM      6  C           0      42.509  12.310  15.447  0.00  0.00     0.045 A 
ATOM      7  C           0      43.249  10.028  15.193  0.00  0.00     0.063 A 
ATOM      8  C           0      43.516   9.967  16.564  0.00  0.00     0.071 A 
ATOM      9  C           0      41.703  13.591  13.411  0.00  0.00     0.104 A 
ATOM     10  C           0      41.972  13.571  14.871  0.00  0.00     0.202 A 
ATOM     11  C           0      42.776  12.248  16.820  0.00  0.00     0.062 A 
ATOM     12  C           0      43.280  11.073  17.375  0.00  0.00     0.143 A 
ENDROOT
BRANCH   8  13
ATOM     13  N           0      44.022   8.788  17.121  0.00  0.00    -0.375 N 
ATOM     14  C           0      45.325   8.303  16.645  0.00  0.00     0.153 C 
ATOM     15  C           0      45.483   6.812  16.943  0.00  0.00     0.289 C 
ATOM     16  N           0      45.245   6.523  18.356  0.00  0.00     0.086 N 
ATOM     17  C           0      43.892   6.930  18.732  0.00  0.00     0.289 C 
ATOM     18  H           0      45.351   5.522  18.517  0.00  0.00     0.316 HD
ATOM     19  C           0      43.674   8.425  18.499  0.00  0.00     0.153 C 
ENDBRANCH   8  13
BRANCH   3  20
ATOM     20  C           0      42.681  10.165  12.293  0.00  0.00     0.090 A 
ATOM     21  C           0      42.954  10.400  10.845  0.00  0.00     0.028 A 
ATOM     22  C           0      44.040   9.883  11.743  0.00  0.00     0.028 A 
ENDBRANCH   3  20
BRANCH   9  23
ATOM     23  C           0      41.174  14.758  12.703  0.00  0.00     0.181 C 
ATOM     24  O           0      41.589  15.163  11.632  0.00  0.00    -0.646 OA
BRANCH  23  25
ATOM     25  O           0      40.170  15.307  13.420  0.00  0.00    -0.772 OA
ATOM     26  H           0      40.424  15.457  14.357  0.00  0.00     0.167 HD
ENDBRANCH  23  25
ENDBRANCH   9  23
TORSDOF 4
