REMARK  4 active torsions:
REMARK  status: ('A' for Active; 'I' for Inactive)
REMARK    1  A    between atoms: O_3  and  C_24 
REMARK    2  A    between atoms: N_5  and  C_8 
REMARK    3  A    between atoms: N_6  and  C_15 
REMARK    4  A    between atoms: C_18  and  C_24 
ROOT
ATOM      1  F           0      39.858   5.442  26.240  0.00  0.00    -0.204 F 
ATOM      2  O           0      43.264   7.432  23.115  0.00  0.00    -0.286 OA
ATOM      3  N           0      41.741   4.215  21.126  0.00  0.00    -0.350 N 
ATOM      4  C           0      41.243   4.503  22.429  0.00  0.00     0.051 A 
ATOM      5  C           0      42.717   5.024  20.576  0.00  0.00     0.114 A 
ATOM      6  C           0      41.752   5.611  23.140  0.00  0.00     0.045 A 
ATOM      7  C           0      40.252   3.724  23.049  0.00  0.00     0.063 A 
ATOM      8  C           0      39.786   4.038  24.329  0.00  0.00     0.071 A 
ATOM      9  C           0      43.267   6.094  21.163  0.00  0.00     0.104 A 
ATOM     10  C           0      42.802   6.463  22.524  0.00  0.00     0.202 A 
ATOM     11  C           0      41.285   5.925  24.422  0.00  0.00     0.062 A 
ATOM     12  C           0      40.301   5.135  25.013  0.00  0.00     0.143 A 
ENDROOT
BRANCH   8  13
ATOM     13  N           0      38.799   3.245  24.923  0.00  0.00    -0.375 N 
ATOM     14  C           0      38.935   2.925  26.350  0.00  0.00     0.153 C 
ATOM     15  C           0      38.115   1.684  26.702  0.00  0.00     0.289 C 
ATOM     16  N           0      36.723   1.828  26.276  0.00  0.00     0.086 N 
ATOM     17  C           0      36.658   2.032  24.830  0.00  0.00     0.289 C 
ATOM     18  H           0      36.209   0.981  26.519  0.00  0.00     0.316 HD
ATOM     19  C           0      37.426   3.285  24.408  0.00  0.00     0.153 C 
ENDBRANCH   8  13
BRANCH   3  20
ATOM     20  C           0      41.241   3.067  20.339  0.00  0.00     0.090 A 
ATOM     21  C           0      39.921   3.131  19.647  0.00  0.00     0.028 A 
ATOM     22  C           0      41.192   3.124  18.849  0.00  0.00     0.028 A 
ENDBRANCH   3  20
BRANCH   9  23
ATOM     23  C           0      44.293   6.837  20.430  0.00  0.00     0.181 C 
ATOM     24  O           0      44.268   7.051  19.231  0.00  0.00    -0.646 OA
BRANCH  23  25
ATOM     25  O           0      45.257   7.241  21.284  0.00  0.00    -0.772 OA
ATOM     26  H           0      44.912   7.855  21.968  0.00  0.00     0.167 HD
ENDBRANCH  23  25
ENDBRANCH   9  23
TORSDOF 4
