REMARK  4 active torsions:
REMARK  status: ('A' for Active; 'I' for Inactive)
REMARK    1  A    between atoms: O_3  and  C_24 
REMARK    2  A    between atoms: N_5  and  C_8 
REMARK    3  A    between atoms: N_6  and  C_15 
REMARK    4  A    between atoms: C_18  and  C_24 
ROOT
ATOM      1  F           0      38.915  27.116  23.069  0.00  0.00    -0.204 F 
ATOM      2  O           0      43.380  29.401  22.649  0.00  0.00    -0.286 OA
ATOM      3  N           0      44.196  25.752  24.274  0.00  0.00    -0.350 N 
ATOM      4  C           0      42.841  26.072  23.979  0.00  0.00     0.051 A 
ATOM      5  C           0      45.189  26.675  24.006  0.00  0.00     0.114 A 
ATOM      6  C           0      42.529  27.328  23.415  0.00  0.00     0.045 A 
ATOM      7  C           0      41.782  25.182  24.224  0.00  0.00     0.063 A 
ATOM      8  C           0      40.463  25.532  23.920  0.00  0.00     0.071 A 
ATOM      9  C           0      45.003  27.890  23.476  0.00  0.00     0.104 A 
ATOM     10  C           0      43.616  28.303  23.138  0.00  0.00     0.202 A 
ATOM     11  C           0      41.208  27.678  23.110  0.00  0.00     0.062 A 
ATOM     12  C           0      40.177  26.775  23.365  0.00  0.00     0.143 A 
ENDROOT
BRANCH   8  13
ATOM     13  N           0      39.428  24.626  24.176  0.00  0.00    -0.375 N 
ATOM     14  C           0      39.353  23.411  23.354  0.00  0.00     0.153 C 
ATOM     15  C           0      37.943  22.821  23.397  0.00  0.00     0.289 C 
ATOM     16  N           0      37.496  22.612  24.772  0.00  0.00     0.086 N 
ATOM     17  C           0      37.489  23.880  25.499  0.00  0.00     0.289 C 
ATOM     18  H           0      36.551  22.226  24.763  0.00  0.00     0.316 HD
ATOM     19  C           0      38.882  24.510  25.533  0.00  0.00     0.153 C 
ENDBRANCH   8  13
BRANCH   3  20
ATOM     20  C           0      44.576  24.449  24.864  0.00  0.00     0.090 A 
ATOM     21  C           0      44.225  23.169  24.183  0.00  0.00     0.028 A 
ATOM     22  C           0      45.655  23.618  24.255  0.00  0.00     0.028 A 
ENDBRANCH   3  20
BRANCH   9  23
ATOM     23  C           0      46.174  28.740  23.260  0.00  0.00     0.181 C 
ATOM     24  O           0      46.178  29.953  23.375  0.00  0.00    -0.646 OA
BRANCH  23  25
ATOM     25  O           0      47.233  27.976  22.918  0.00  0.00    -0.772 OA
ATOM     26  H           0      47.944  28.500  22.490  0.00  0.00     0.167 HD
ENDBRANCH  23  25
ENDBRANCH   9  23
TORSDOF 4
