REMARK  4 active torsions:
REMARK  status: ('A' for Active; 'I' for Inactive)
REMARK    1  A    between atoms: O_3  and  C_24 
REMARK    2  A    between atoms: N_5  and  C_8 
REMARK    3  A    between atoms: N_6  and  C_15 
REMARK    4  A    between atoms: C_18  and  C_24 
ROOT
ATOM      1  F           0      38.973  26.655  24.051  0.00  0.00    -0.204 F 
ATOM      2  O           0      42.848  29.072  21.934  0.00  0.00    -0.286 OA
ATOM      3  N           0      43.947  25.146  22.004  0.00  0.00    -0.350 N 
ATOM      4  C           0      42.674  25.501  22.534  0.00  0.00     0.051 A 
ATOM      5  C           0      44.768  26.129  21.486  0.00  0.00     0.114 A 
ATOM      6  C           0      42.267  26.853  22.522  0.00  0.00     0.045 A 
ATOM      7  C           0      41.789  24.554  23.076  0.00  0.00     0.063 A 
ATOM      8  C           0      40.546  24.941  23.586  0.00  0.00     0.071 A 
ATOM      9  C           0      44.481  27.435  21.427  0.00  0.00     0.104 A 
ATOM     10  C           0      43.171  27.890  21.959  0.00  0.00     0.202 A 
ATOM     11  C           0      41.022  27.239  23.034  0.00  0.00     0.062 A 
ATOM     12  C           0      40.164  26.278  23.565  0.00  0.00     0.143 A 
ENDROOT
BRANCH   8  13
ATOM     13  N           0      39.685  23.977  24.120  0.00  0.00    -0.375 N 
ATOM     14  C           0      38.422  23.712  23.419  0.00  0.00     0.153 C 
ATOM     15  C           0      37.412  23.059  24.362  0.00  0.00     0.289 C 
ATOM     16  N           0      37.972  21.870  25.001  0.00  0.00     0.086 N 
ATOM     17  C           0      39.162  22.226  25.772  0.00  0.00     0.289 C 
ATOM     18  H           0      37.275  21.466  25.627  0.00  0.00     0.316 HD
ATOM     19  C           0      40.237  22.850  24.882  0.00  0.00     0.153 C 
ENDBRANCH   8  13
BRANCH   3  20
ATOM     20  C           0      44.420  23.744  21.992  0.00  0.00     0.090 A 
ATOM     21  C           0      43.777  22.728  21.110  0.00  0.00     0.028 A 
ATOM     22  C           0      45.172  23.201  20.823  0.00  0.00     0.028 A 
ENDBRANCH   3  20
BRANCH   9  23
ATOM     23  C           0      45.473  28.339  20.843  0.00  0.00     0.181 C 
ATOM     24  O           0      45.974  28.197  19.742  0.00  0.00    -0.646 OA
BRANCH  23  25
ATOM     25  O           0      45.740  29.340  21.709  0.00  0.00    -0.772 OA
ATOM     26  H           0      44.944  29.612  22.215  0.00  0.00     0.167 HD
ENDBRANCH  23  25
ENDBRANCH   9  23
TORSDOF 4
