REMARK  4 active torsions:
REMARK  status: ('A' for Active; 'I' for Inactive)
REMARK    1  A    between atoms: O_3  and  C_24 
REMARK    2  A    between atoms: N_5  and  C_8 
REMARK    3  A    between atoms: N_6  and  C_15 
REMARK    4  A    between atoms: C_18  and  C_24 
ROOT
ATOM      1  F           0      41.739  12.011  15.974  0.00  0.00    -0.204 F 
ATOM      2  O           0      43.625   9.352  19.809  0.00  0.00    -0.286 OA
ATOM      3  N           0      46.586  11.948  18.751  0.00  0.00    -0.350 N 
ATOM      4  C           0      45.362  11.986  18.024  0.00  0.00     0.051 A 
ATOM      5  C           0      46.738  11.043  19.784  0.00  0.00     0.114 A 
ATOM      6  C           0      44.320  11.099  18.369  0.00  0.00     0.045 A 
ATOM      7  C           0      45.139  12.880  16.964  0.00  0.00     0.063 A 
ATOM      8  C           0      43.923  12.889  16.274  0.00  0.00     0.071 A 
ATOM      9  C           0      45.817  10.161  20.190  0.00  0.00     0.104 A 
ATOM     10  C           0      44.510  10.135  19.484  0.00  0.00     0.202 A 
ATOM     11  C           0      43.102  11.108  17.678  0.00  0.00     0.062 A 
ATOM     12  C           0      42.908  12.006  16.630  0.00  0.00     0.143 A 
ENDROOT
BRANCH   8  13
ATOM     13  N           0      43.729  13.789  15.221  0.00  0.00    -0.375 N 
ATOM     14  C           0      44.635  13.710  14.068  0.00  0.00     0.153 C 
ATOM     15  C           0      44.630  15.027  13.292  0.00  0.00     0.289 C 
ATOM     16  N           0      43.272  15.425  12.927  0.00  0.00     0.086 N 
ATOM     17  C           0      42.457  15.593  14.129  0.00  0.00     0.289 C 
ATOM     18  H           0      43.306  16.309  12.419  0.00  0.00     0.316 HD
ATOM     19  C           0      42.382  14.298  14.938  0.00  0.00     0.153 C 
ENDBRANCH   8  13
BRANCH   3  20
ATOM     20  C           0      47.709  12.856  18.430  0.00  0.00     0.090 A 
ATOM     21  C           0      49.119  12.453  18.700  0.00  0.00     0.028 A 
ATOM     22  C           0      48.625  12.567  17.288  0.00  0.00     0.028 A 
ENDBRANCH   3  20
BRANCH   9  23
ATOM     23  C           0      46.150   9.274  21.305  0.00  0.00     0.181 C 
ATOM     24  O           0      47.215   8.697  21.436  0.00  0.00    -0.646 OA
BRANCH  23  25
ATOM     25  O           0      45.102   9.196  22.153  0.00  0.00    -0.772 OA
ATOM     26  H           0      44.323   9.696  21.823  0.00  0.00     0.167 HD
ENDBRANCH  23  25
ENDBRANCH   9  23
TORSDOF 4
