REMARK  4 active torsions:
REMARK  status: ('A' for Active; 'I' for Inactive)
REMARK    1  A    between atoms: O_3  and  C_24 
REMARK    2  A    between atoms: N_5  and  C_8 
REMARK    3  A    between atoms: N_6  and  C_15 
REMARK    4  A    between atoms: C_18  and  C_24 
ROOT
ATOM      1  F           0      53.937  37.934  29.026  0.00  0.00    -0.204 F 
ATOM      2  O           0      53.786  39.795  24.351  0.00  0.00    -0.286 OA
ATOM      3  N           0      54.622  35.830  23.896  0.00  0.00    -0.350 N 
ATOM      4  C           0      54.454  36.338  25.215  0.00  0.00     0.051 A 
ATOM      5  C           0      54.499  36.683  22.816  0.00  0.00     0.114 A 
ATOM      6  C           0      54.164  37.707  25.403  0.00  0.00     0.045 A 
ATOM      7  C           0      54.564  35.528  26.358  0.00  0.00     0.063 A 
ATOM      8  C           0      54.391  36.064  27.638  0.00  0.00     0.071 A 
ATOM      9  C           0      54.228  37.992  22.882  0.00  0.00     0.104 A 
ATOM     10  C           0      54.038  38.603  24.223  0.00  0.00     0.202 A 
ATOM     11  C           0      53.990  38.242  26.685  0.00  0.00     0.062 A 
ATOM     12  C           0      54.106  37.415  27.801  0.00  0.00     0.143 A 
ENDROOT
BRANCH   8  13
ATOM     13  N           0      54.508  35.234  28.758  0.00  0.00    -0.375 N 
ATOM     14  C           0      53.280  34.662  29.326  0.00  0.00     0.153 C 
ATOM     15  C           0      53.507  34.238  30.777  0.00  0.00     0.289 C 
ATOM     16  N           0      54.662  33.350  30.897  0.00  0.00     0.086 N 
ATOM     17  C           0      55.868  34.024  30.417  0.00  0.00     0.289 C 
ATOM     18  H           0      54.789  33.094  31.877  0.00  0.00     0.316 HD
ATOM     19  C           0      55.728  34.441  28.953  0.00  0.00     0.153 C 
ENDBRANCH   8  13
BRANCH   3  20
ATOM     20  C           0      54.927  34.404  23.646  0.00  0.00     0.090 A 
ATOM     21  C           0      55.879  34.004  22.569  0.00  0.00     0.028 A 
ATOM     22  C           0      56.255  33.830  24.011  0.00  0.00     0.028 A 
ENDBRANCH   3  20
BRANCH   9  23
ATOM     23  C           0      54.135  38.746  21.631  0.00  0.00     0.181 C 
ATOM     24  O           0      53.442  38.427  20.682  0.00  0.00    -0.646 OA
BRANCH  23  25
ATOM     25  O           0      54.929  39.836  21.698  0.00  0.00    -0.772 OA
ATOM     26  H           0      54.762  40.365  22.508  0.00  0.00     0.167 HD
ENDBRANCH  23  25
ENDBRANCH   9  23
TORSDOF 4
