REMARK  4 active torsions:
REMARK  status: ('A' for Active; 'I' for Inactive)
REMARK    1  A    between atoms: O_3  and  C_24 
REMARK    2  A    between atoms: N_5  and  C_8 
REMARK    3  A    between atoms: N_6  and  C_15 
REMARK    4  A    between atoms: C_18  and  C_24 
ROOT
ATOM      1  F           0      45.888  37.999  33.822  0.00  0.00    -0.204 F 
ATOM      2  O           0      50.671  36.539  34.390  0.00  0.00    -0.286 OA
ATOM      3  N           0      49.011  33.801  31.866  0.00  0.00    -0.350 N 
ATOM      4  C           0      48.190  34.859  32.349  0.00  0.00     0.051 A 
ATOM      5  C           0      50.333  33.729  32.260  0.00  0.00     0.114 A 
ATOM      6  C           0      48.739  35.821  33.224  0.00  0.00     0.045 A 
ATOM      7  C           0      46.839  34.993  31.990  0.00  0.00     0.063 A 
ATOM      8  C           0      46.064  36.047  32.484  0.00  0.00     0.071 A 
ATOM      9  C           0      50.950  34.585  33.083  0.00  0.00     0.104 A 
ATOM     10  C           0      50.164  35.720  33.632  0.00  0.00     0.202 A 
ATOM     11  C           0      47.963  36.877  33.719  0.00  0.00     0.062 A 
ATOM     12  C           0      46.624  36.985  33.346  0.00  0.00     0.143 A 
ENDROOT
BRANCH   8  13
ATOM     13  N           0      44.721  36.156  32.111  0.00  0.00    -0.375 N 
ATOM     14  C           0      43.773  35.170  32.645  0.00  0.00     0.153 C 
ATOM     15  C           0      42.519  35.105  31.774  0.00  0.00     0.289 C 
ATOM     16  N           0      41.927  36.429  31.593  0.00  0.00     0.086 N 
ATOM     17  C           0      42.888  37.327  30.955  0.00  0.00     0.289 C 
ATOM     18  H           0      41.099  36.350  31.002  0.00  0.00     0.316 HD
ATOM     19  C           0      44.157  37.474  31.795  0.00  0.00     0.153 C 
ENDBRANCH   8  13
BRANCH   3  20
ATOM     20  C           0      48.485  32.767  30.947  0.00  0.00     0.090 A 
ATOM     21  C           0      49.402  31.997  30.058  0.00  0.00     0.028 A 
ATOM     22  C           0      48.722  31.318  31.210  0.00  0.00     0.028 A 
ENDBRANCH   3  20
BRANCH   9  23
ATOM     23  C           0      52.361  34.355  33.394  0.00  0.00     0.181 C 
ATOM     24  O           0      52.834  33.276  33.701  0.00  0.00    -0.646 OA
BRANCH  23  25
ATOM     25  O           0      53.044  35.515  33.289  0.00  0.00    -0.772 OA
ATOM     26  H           0      52.606  36.247  33.775  0.00  0.00     0.167 HD
ENDBRANCH  23  25
ENDBRANCH   9  23
TORSDOF 4
