REMARK  4 active torsions:
REMARK  status: ('A' for Active; 'I' for Inactive)
REMARK    1  A    between atoms: O_3  and  C_24 
REMARK    2  A    between atoms: N_5  and  C_8 
REMARK    3  A    between atoms: N_6  and  C_15 
REMARK    4  A    between atoms: C_18  and  C_24 
ROOT
ATOM      1  F           0      33.392  16.517  13.717  0.00  0.00    -0.204 F 
ATOM      2  O           0      38.059  14.942  12.682  0.00  0.00    -0.286 OA
ATOM      3  N           0      38.541  18.309  14.930  0.00  0.00    -0.350 N 
ATOM      4  C           0      37.217  17.877  14.636  0.00  0.00     0.051 A 
ATOM      5  C           0      39.617  17.585  14.452  0.00  0.00     0.114 A 
ATOM      6  C           0      37.021  16.715  13.859  0.00  0.00     0.045 A 
ATOM      7  C           0      36.079  18.564  15.090  0.00  0.00     0.063 A 
ATOM      8  C           0      34.794  18.108  14.781  0.00  0.00     0.071 A 
ATOM      9  C           0      39.542  16.474  13.709  0.00  0.00     0.104 A 
ATOM     10  C           0      38.195  15.955  13.357  0.00  0.00     0.202 A 
ATOM     11  C           0      35.733  16.259  13.551  0.00  0.00     0.062 A 
ATOM     12  C           0      34.621  16.960  14.014  0.00  0.00     0.143 A 
ENDROOT
BRANCH   8  13
ATOM     13  N           0      33.678  18.812  15.245  0.00  0.00    -0.375 N 
ATOM     14  C           0      33.793  19.526  16.524  0.00  0.00     0.153 C 
ATOM     15  C           0      32.410  19.786  17.119  0.00  0.00     0.289 C 
ATOM     16  N           0      31.537  20.464  16.162  0.00  0.00     0.086 N 
ATOM     17  C           0      31.378  19.646  14.960  0.00  0.00     0.289 C 
ATOM     18  H           0      30.623  20.614  16.589  0.00  0.00     0.316 HD
ATOM     19  C           0      32.724  19.379  14.285  0.00  0.00     0.153 C 
ENDBRANCH   8  13
BRANCH   3  20
ATOM     20  C           0      38.802  19.520  15.739  0.00  0.00     0.090 A 
ATOM     21  C           0      38.397  19.582  17.174  0.00  0.00     0.028 A 
ATOM     22  C           0      39.850  19.519  16.802  0.00  0.00     0.028 A 
ENDBRANCH   3  20
BRANCH   9  23
ATOM     23  C           0      40.789  15.835  13.288  0.00  0.00     0.181 C 
ATOM     24  O           0      41.706  16.410  12.728  0.00  0.00    -0.646 OA
BRANCH  23  25
ATOM     25  O           0      40.760  14.525  13.612  0.00  0.00    -0.772 OA
ATOM     26  H           0      39.946  14.082  13.287  0.00  0.00     0.167 HD
ENDBRANCH  23  25
ENDBRANCH   9  23
TORSDOF 4
