REMARK  4 active torsions:
REMARK  status: ('A' for Active; 'I' for Inactive)
REMARK    1  A    between atoms: O_3  and  C_24 
REMARK    2  A    between atoms: N_5  and  C_8 
REMARK    3  A    between atoms: N_6  and  C_15 
REMARK    4  A    between atoms: C_18  and  C_24 
ROOT
ATOM      1  F           0      38.916  26.893  23.431  0.00  0.00    -0.204 F 
ATOM      2  O           0      43.135  29.602  22.990  0.00  0.00    -0.286 OA
ATOM      3  N           0      44.375  25.726  23.238  0.00  0.00    -0.350 N 
ATOM      4  C           0      42.978  25.993  23.292  0.00  0.00     0.051 A 
ATOM      5  C           0      45.266  26.774  23.106  0.00  0.00     0.114 A 
ATOM      6  C           0      42.520  27.325  23.208  0.00  0.00     0.045 A 
ATOM      7  C           0      42.018  24.976  23.425  0.00  0.00     0.063 A 
ATOM      8  C           0      40.653  25.277  23.473  0.00  0.00     0.071 A 
ATOM      9  C           0      44.939  28.069  23.018  0.00  0.00     0.104 A 
ATOM     10  C           0      43.500  28.434  23.066  0.00  0.00     0.202 A 
ATOM     11  C           0      41.154  27.626  23.255  0.00  0.00     0.062 A 
ATOM     12  C           0      40.223  26.598  23.388  0.00  0.00     0.143 A 
ENDROOT
BRANCH   8  13
ATOM     13  N           0      39.719  24.245  23.607  0.00  0.00    -0.375 N 
ATOM     14  C           0      40.051  22.934  23.034  0.00  0.00     0.153 C 
ATOM     15  C           0      38.782  22.111  22.808  0.00  0.00     0.289 C 
ATOM     16  N           0      37.983  22.018  24.029  0.00  0.00     0.086 N 
ATOM     17  C           0      37.596  23.354  24.480  0.00  0.00     0.289 C 
ATOM     18  H           0      37.143  21.471  23.840  0.00  0.00     0.316 HD
ATOM     19  C           0      38.820  24.223  24.767  0.00  0.00     0.153 C 
ENDBRANCH   8  13
BRANCH   3  20
ATOM     20  C           0      44.907  24.347  23.322  0.00  0.00     0.090 A 
ATOM     21  C           0      45.315  23.610  22.091  0.00  0.00     0.028 A 
ATOM     22  C           0      46.352  24.068  23.075  0.00  0.00     0.028 A 
ENDBRANCH   3  20
BRANCH   9  23
ATOM     23  C           0      46.017  29.050  22.882  0.00  0.00     0.181 C 
ATOM     24  O           0      47.102  28.818  22.381  0.00  0.00    -0.646 OA
BRANCH  23  25
ATOM     25  O           0      45.620  30.234  23.394  0.00  0.00    -0.772 OA
ATOM     26  H           0      44.720  30.484  23.091  0.00  0.00     0.167 HD
ENDBRANCH  23  25
ENDBRANCH   9  23
TORSDOF 4
