REMARK  4 active torsions:
REMARK  status: ('A' for Active; 'I' for Inactive)
REMARK    1  A    between atoms: O_3  and  C_24 
REMARK    2  A    between atoms: N_5  and  C_8 
REMARK    3  A    between atoms: N_6  and  C_15 
REMARK    4  A    between atoms: C_18  and  C_24 
ROOT
ATOM      1  F           0      30.414 -15.489   4.636  0.00  0.00    -0.204 F 
ATOM      2  O           0      32.959 -14.295   0.461  0.00  0.00    -0.286 OA
ATOM      3  N           0      33.719 -11.263   3.080  0.00  0.00    -0.350 N 
ATOM      4  C           0      32.872 -12.326   3.504  0.00  0.00     0.051 A 
ATOM      5  C           0      34.256 -11.285   1.807  0.00  0.00     0.114 A 
ATOM      6  C           0      32.592 -13.389   2.618  0.00  0.00     0.045 A 
ATOM      7  C           0      32.293 -12.368   4.783  0.00  0.00     0.063 A 
ATOM      8  C           0      31.467 -13.430   5.164  0.00  0.00     0.071 A 
ATOM      9  C           0      34.054 -12.241   0.891  0.00  0.00     0.104 A 
ATOM     10  C           0      33.182 -13.387   1.254  0.00  0.00     0.202 A 
ATOM     11  C           0      31.764 -14.452   3.000  0.00  0.00     0.062 A 
ATOM     12  C           0      31.203 -14.468   4.276  0.00  0.00     0.143 A 
ENDROOT
BRANCH   8  13
ATOM     13  N           0      30.903 -13.445   6.444  0.00  0.00    -0.375 N 
ATOM     14  C           0      31.378 -14.458   7.397  0.00  0.00     0.153 C 
ATOM     15  C           0      30.348 -14.674   8.506  0.00  0.00     0.289 C 
ATOM     16  N           0      29.982 -13.412   9.146  0.00  0.00     0.086 N 
ATOM     17  C           0      29.414 -12.494   8.160  0.00  0.00     0.289 C 
ATOM     18  H           0      29.290 -13.593   9.873  0.00  0.00     0.316 HD
ATOM     19  C           0      30.408 -12.198   7.037  0.00  0.00     0.153 C 
ENDBRANCH   8  13
BRANCH   3  20
ATOM     20  C           0      34.044 -10.127   3.970  0.00  0.00     0.090 A 
ATOM     21  C           0      35.146  -9.181   3.630  0.00  0.00     0.028 A 
ATOM     22  C           0      33.718  -8.726   3.571  0.00  0.00     0.028 A 
ENDBRANCH   3  20
BRANCH   9  23
ATOM     23  C           0      34.704 -12.101  -0.412  0.00  0.00     0.181 C 
ATOM     24  O           0      35.896 -11.911  -0.574  0.00  0.00    -0.646 OA
BRANCH  23  25
ATOM     25  O           0      33.783 -12.215  -1.393  0.00  0.00    -0.772 OA
ATOM     26  H           0      33.179 -12.975  -1.246  0.00  0.00     0.167 HD
ENDBRANCH  23  25
ENDBRANCH   9  23
TORSDOF 4
