REMARK  4 active torsions:
REMARK  status: ('A' for Active; 'I' for Inactive)
REMARK    1  A    between atoms: O_3  and  C_24 
REMARK    2  A    between atoms: N_5  and  C_8 
REMARK    3  A    between atoms: N_6  and  C_15 
REMARK    4  A    between atoms: C_18  and  C_24 
ROOT
ATOM      1  F           0      39.936   6.608  25.210  0.00  0.00    -0.204 F 
ATOM      2  O           0      43.648   9.221  23.035  0.00  0.00    -0.286 OA
ATOM      3  N           0      43.633   5.609  21.144  0.00  0.00    -0.350 N 
ATOM      4  C           0      42.680   5.835  22.177  0.00  0.00     0.051 A 
ATOM      5  C           0      44.529   6.608  20.812  0.00  0.00     0.114 A 
ATOM      6  C           0      42.662   7.076  22.849  0.00  0.00     0.045 A 
ATOM      7  C           0      41.741   4.865  22.565  0.00  0.00     0.063 A 
ATOM      8  C           0      40.819   5.123  23.584  0.00  0.00     0.071 A 
ATOM      9  C           0      44.597   7.816  21.384  0.00  0.00     0.104 A 
ATOM     10  C           0      43.637   8.133  22.472  0.00  0.00     0.202 A 
ATOM     11  C           0      41.739   7.335  23.869  0.00  0.00     0.062 A 
ATOM     12  C           0      40.818   6.354  24.233  0.00  0.00     0.143 A 
ENDROOT
BRANCH   8  13
ATOM     13  N           0      39.896   4.139  23.951  0.00  0.00    -0.375 N 
ATOM     14  C           0      39.476   3.170  22.929  0.00  0.00     0.153 C 
ATOM     15  C           0      38.143   2.528  23.315  0.00  0.00     0.289 C 
ATOM     16  N           0      38.197   1.957  24.660  0.00  0.00     0.086 N 
ATOM     17  C           0      38.509   2.999  25.637  0.00  0.00     0.289 C 
ATOM     18  H           0      37.291   1.546  24.886  0.00  0.00     0.316 HD
ATOM     19  C           0      39.855   3.659  25.337  0.00  0.00     0.153 C 
ENDBRANCH   8  13
BRANCH   3  20
ATOM     20  C           0      43.694   4.326  20.409  0.00  0.00     0.090 A 
ATOM     21  C           0      42.512   3.824  19.650  0.00  0.00     0.028 A 
ATOM     22  C           0      43.732   4.300  18.917  0.00  0.00     0.028 A 
ENDBRANCH   3  20
BRANCH   9  23
ATOM     23  C           0      45.614   8.754  20.906  0.00  0.00     0.181 C 
ATOM     24  O           0      45.791   9.045  19.736  0.00  0.00    -0.646 OA
BRANCH  23  25
ATOM     25  O           0      46.315   9.237  21.954  0.00  0.00    -0.772 OA
ATOM     26  H           0      45.730   9.624  22.641  0.00  0.00     0.167 HD
ENDBRANCH  23  25
ENDBRANCH   9  23
TORSDOF 4
