REMARK  4 active torsions:
REMARK  status: ('A' for Active; 'I' for Inactive)
REMARK    1  A    between atoms: O_3  and  C_24 
REMARK    2  A    between atoms: N_5  and  C_8 
REMARK    3  A    between atoms: N_6  and  C_15 
REMARK    4  A    between atoms: C_18  and  C_24 
ROOT
ATOM      1  F           0      52.241  34.196  30.031  0.00  0.00    -0.204 F 
ATOM      2  O           0      55.933  35.696  26.957  0.00  0.00    -0.286 OA
ATOM      3  N           0      54.608  32.171  25.395  0.00  0.00    -0.350 N 
ATOM      4  C           0      53.987  32.662  26.578  0.00  0.00     0.051 A 
ATOM      5  C           0      55.633  32.893  24.813  0.00  0.00     0.114 A 
ATOM      6  C           0      54.425  33.880  27.140  0.00  0.00     0.045 A 
ATOM      7  C           0      52.940  31.980  27.221  0.00  0.00     0.063 A 
ATOM      8  C           0      52.354  32.495  28.382  0.00  0.00     0.071 A 
ATOM      9  C           0      56.123  34.054  25.263  0.00  0.00     0.104 A 
ATOM     10  C           0      55.530  34.636  26.494  0.00  0.00     0.202 A 
ATOM     11  C           0      53.837  34.395  28.302  0.00  0.00     0.062 A 
ATOM     12  C           0      52.801  33.697  28.920  0.00  0.00     0.143 A 
ENDROOT
BRANCH   8  13
ATOM     13  N           0      51.314  31.794  29.002  0.00  0.00    -0.375 N 
ATOM     14  C           0      51.538  30.383  29.344  0.00  0.00     0.153 C 
ATOM     15  C           0      50.205  29.656  29.518  0.00  0.00     0.289 C 
ATOM     16  N           0      49.343  30.347  30.475  0.00  0.00     0.086 N 
ATOM     17  C           0      49.072  31.709  30.016  0.00  0.00     0.289 C 
ATOM     18  H           0      48.462  29.840  30.560  0.00  0.00     0.316 HD
ATOM     19  C           0      50.362  32.512  29.858  0.00  0.00     0.153 C 
ENDBRANCH   8  13
BRANCH   3  20
ATOM     20  C           0      54.187  30.900  24.765  0.00  0.00     0.090 A 
ATOM     21  C           0      54.945  30.329  23.614  0.00  0.00     0.028 A 
ATOM     22  C           0      54.982  29.652  24.953  0.00  0.00     0.028 A 
ENDBRANCH   3  20
BRANCH   9  23
ATOM     23  C           0      57.215  34.682  24.518  0.00  0.00     0.181 C 
ATOM     24  O           0      58.132  34.077  23.994  0.00  0.00    -0.646 OA
BRANCH  23  25
ATOM     25  O           0      57.046  36.022  24.508  0.00  0.00    -0.772 OA
ATOM     26  H           0      57.030  36.399  25.415  0.00  0.00     0.167 HD
ENDBRANCH  23  25
ENDBRANCH   9  23
TORSDOF 4
