REMARK  4 active torsions:
REMARK  status: ('A' for Active; 'I' for Inactive)
REMARK    1  A    between atoms: O_3  and  C_24 
REMARK    2  A    between atoms: N_5  and  C_8 
REMARK    3  A    between atoms: N_6  and  C_15 
REMARK    4  A    between atoms: C_18  and  C_24 
ROOT
ATOM      1  F           0      41.190   1.853  20.675  0.00  0.00    -0.204 F 
ATOM      2  O           0      44.565   4.528  18.070  0.00  0.00    -0.286 OA
ATOM      3  N           0      43.250   7.035  21.004  0.00  0.00    -0.350 N 
ATOM      4  C           0      42.706   5.721  20.944  0.00  0.00     0.051 A 
ATOM      5  C           0      44.198   7.424  20.077  0.00  0.00     0.114 A 
ATOM      6  C           0      43.143   4.831  19.939  0.00  0.00     0.045 A 
ATOM      7  C           0      41.740   5.259  21.854  0.00  0.00     0.063 A 
ATOM      8  C           0      41.230   3.960  21.764  0.00  0.00     0.071 A 
ATOM      9  C           0      44.679   6.662  19.087  0.00  0.00     0.104 A 
ATOM     10  C           0      44.164   5.276  18.954  0.00  0.00     0.202 A 
ATOM     11  C           0      42.632   3.531  19.850  0.00  0.00     0.062 A 
ATOM     12  C           0      41.674   3.100  20.765  0.00  0.00     0.143 A 
ENDROOT
BRANCH   8  13
ATOM     13  N           0      40.268   3.528  22.682  0.00  0.00    -0.375 N 
ATOM     14  C           0      39.989   4.381  23.845  0.00  0.00     0.153 C 
ATOM     15  C           0      39.342   3.566  24.965  0.00  0.00     0.289 C 
ATOM     16  N           0      38.163   2.846  24.486  0.00  0.00     0.086 N 
ATOM     17  C           0      38.534   1.935  23.405  0.00  0.00     0.289 C 
ATOM     18  H           0      37.762   2.309  25.255  0.00  0.00     0.316 HD
ATOM     19  C           0      39.153   2.689  22.228  0.00  0.00     0.153 C 
ENDBRANCH   8  13
BRANCH   3  20
ATOM     20  C           0      42.825   8.005  22.037  0.00  0.00     0.090 A 
ATOM     21  C           0      43.547   8.100  23.339  0.00  0.00     0.028 A 
ATOM     22  C           0      43.649   9.213  22.337  0.00  0.00     0.028 A 
ENDBRANCH   3  20
BRANCH   9  23
ATOM     23  C           0      45.684   7.239  18.193  0.00  0.00     0.181 C 
ATOM     24  O           0      45.562   8.301  17.609  0.00  0.00    -0.646 OA
BRANCH  23  25
ATOM     25  O           0      46.752   6.416  18.119  0.00  0.00    -0.772 OA
ATOM     26  H           0      46.494   5.496  17.897  0.00  0.00     0.167 HD
ENDBRANCH  23  25
ENDBRANCH   9  23
TORSDOF 4
