REMARK  4 active torsions:
REMARK  status: ('A' for Active; 'I' for Inactive)
REMARK    1  A    between atoms: O_3  and  C_24 
REMARK    2  A    between atoms: N_5  and  C_8 
REMARK    3  A    between atoms: N_6  and  C_15 
REMARK    4  A    between atoms: C_18  and  C_24 
ROOT
ATOM      1  F           0      42.635  29.775  23.053  0.00  0.00    -0.204 F 
ATOM      2  O           0      42.661  34.413  21.098  0.00  0.00    -0.286 OA
ATOM      3  N           0      46.464  33.028  20.611  0.00  0.00    -0.350 N 
ATOM      4  C           0      45.510  32.177  21.238  0.00  0.00     0.051 A 
ATOM      5  C           0      46.082  34.287  20.189  0.00  0.00     0.114 A 
ATOM      6  C           0      44.186  32.631  21.419  0.00  0.00     0.045 A 
ATOM      7  C           0      45.830  30.886  21.691  0.00  0.00     0.063 A 
ATOM      8  C           0      44.865  30.079  22.301  0.00  0.00     0.071 A 
ATOM      9  C           0      44.857  34.813  20.312  0.00  0.00     0.104 A 
ATOM     10  C           0      43.802  33.990  20.956  0.00  0.00     0.202 A 
ATOM     11  C           0      43.220  31.822  22.030  0.00  0.00     0.062 A 
ATOM     12  C           0      43.565  30.545  22.470  0.00  0.00     0.143 A 
ENDROOT
BRANCH   8  13
ATOM     13  N           0      45.211  28.798  22.744  0.00  0.00    -0.375 N 
ATOM     14  C           0      44.141  27.801  22.878  0.00  0.00     0.153 C 
ATOM     15  C           0      44.570  26.679  23.825  0.00  0.00     0.289 C 
ATOM     16  N           0      45.848  26.098  23.417  0.00  0.00     0.086 N 
ATOM     17  C           0      46.889  27.125  23.412  0.00  0.00     0.289 C 
ATOM     18  H           0      46.107  25.361  24.073  0.00  0.00     0.316 HD
ATOM     19  C           0      46.546  28.263  22.452  0.00  0.00     0.153 C 
ENDBRANCH   8  13
BRANCH   3  20
ATOM     20  C           0      47.864  32.600  20.397  0.00  0.00     0.090 A 
ATOM     21  C           0      48.179  31.404  19.563  0.00  0.00     0.028 A 
ATOM     22  C           0      48.525  32.780  19.071  0.00  0.00     0.028 A 
ENDBRANCH   3  20
BRANCH   9  23
ATOM     23  C           0      44.629  36.167  19.807  0.00  0.00     0.181 C 
ATOM     24  O           0      45.161  36.634  18.816  0.00  0.00    -0.646 OA
BRANCH  23  25
ATOM     25  O           0      43.748  36.807  20.605  0.00  0.00    -0.772 OA
ATOM     26  H           0      43.555  36.299  21.423  0.00  0.00     0.167 HD
ENDBRANCH  23  25
ENDBRANCH   9  23
TORSDOF 4
