REMARK  4 active torsions:
REMARK  status: ('A' for Active; 'I' for Inactive)
REMARK    1  A    between atoms: O_3  and  C_24 
REMARK    2  A    between atoms: N_5  and  C_8 
REMARK    3  A    between atoms: N_6  and  C_15 
REMARK    4  A    between atoms: C_18  and  C_24 
ROOT
ATOM      1  F           0      42.101  29.631  22.983  0.00  0.00    -0.204 F 
ATOM      2  O           0      42.684  34.331  21.277  0.00  0.00    -0.286 OA
ATOM      3  N           0      46.323  32.559  20.790  0.00  0.00    -0.350 N 
ATOM      4  C           0      45.267  31.789  21.353  0.00  0.00     0.051 A 
ATOM      5  C           0      46.092  33.873  20.428  0.00  0.00     0.114 A 
ATOM      6  C           0      43.996  32.377  21.533  0.00  0.00     0.045 A 
ATOM      7  C           0      45.432  30.449  21.743  0.00  0.00     0.063 A 
ATOM      8  C           0      44.369  29.724  22.291  0.00  0.00     0.071 A 
ATOM      9  C           0      44.930  34.524  20.556  0.00  0.00     0.104 A 
ATOM     10  C           0      43.775  33.792  21.135  0.00  0.00     0.202 A 
ATOM     11  C           0      42.932  31.650  22.081  0.00  0.00     0.062 A 
ATOM     12  C           0      43.124  30.322  22.459  0.00  0.00     0.143 A 
ENDROOT
BRANCH   8  13
ATOM     13  N           0      44.562  28.392  22.671  0.00  0.00    -0.375 N 
ATOM     14  C           0      45.319  27.517  21.766  0.00  0.00     0.153 C 
ATOM     15  C           0      45.003  26.049  22.052  0.00  0.00     0.289 C 
ATOM     16  N           0      45.205  25.726  23.463  0.00  0.00     0.086 N 
ATOM     17  C           0      44.340  26.557  24.299  0.00  0.00     0.289 C 
ATOM     18  H           0      44.978  24.744  23.619  0.00  0.00     0.316 HD
ATOM     19  C           0      44.629  28.044  24.095  0.00  0.00     0.153 C 
ENDBRANCH   8  13
BRANCH   3  20
ATOM     20  C           0      47.673  31.991  20.581  0.00  0.00     0.090 A 
ATOM     21  C           0      47.858  30.716  19.829  0.00  0.00     0.028 A 
ATOM     22  C           0      48.314  32.015  19.233  0.00  0.00     0.028 A 
ENDBRANCH   3  20
BRANCH   9  23
ATOM     23  C           0      44.864  35.920  20.119  0.00  0.00     0.181 C 
ATOM     24  O           0      45.376  36.350  19.101  0.00  0.00    -0.646 OA
BRANCH  23  25
ATOM     25  O           0      44.158  36.642  21.014  0.00  0.00    -0.772 OA
ATOM     26  H           0      43.356  36.166  21.323  0.00  0.00     0.167 HD
ENDBRANCH  23  25
ENDBRANCH   9  23
TORSDOF 4
