REMARK  4 active torsions:
REMARK  status: ('A' for Active; 'I' for Inactive)
REMARK    1  A    between atoms: O_3  and  C_24 
REMARK    2  A    between atoms: N_5  and  C_8 
REMARK    3  A    between atoms: N_6  and  C_15 
REMARK    4  A    between atoms: C_18  and  C_24 
ROOT
ATOM      1  F           0      35.869   3.029  19.404  0.00  0.00    -0.204 F 
ATOM      2  O           0      40.800   3.221  18.415  0.00  0.00    -0.286 OA
ATOM      3  N           0      40.515   3.469  22.474  0.00  0.00    -0.350 N 
ATOM      4  C           0      39.314   3.359  21.718  0.00  0.00     0.051 A 
ATOM      5  C           0      41.732   3.489  21.822  0.00  0.00     0.114 A 
ATOM      6  C           0      39.383   3.271  20.311  0.00  0.00     0.045 A 
ATOM      7  C           0      38.042   3.333  22.316  0.00  0.00     0.063 A 
ATOM      8  C           0      36.885   3.222  21.539  0.00  0.00     0.071 A 
ATOM      9  C           0      41.909   3.413  20.497  0.00  0.00     0.104 A 
ATOM     10  C           0      40.706   3.296  19.634  0.00  0.00     0.202 A 
ATOM     11  C           0      38.223   3.161  19.534  0.00  0.00     0.062 A 
ATOM     12  C           0      36.975   3.137  20.154  0.00  0.00     0.143 A 
ENDROOT
BRANCH   8  13
ATOM     13  N           0      35.632   3.199  22.161  0.00  0.00    -0.375 N 
ATOM     14  C           0      35.554   3.599  23.572  0.00  0.00     0.153 C 
ATOM     15  C           0      34.284   3.042  24.217  0.00  0.00     0.289 C 
ATOM     16  N           0      33.094   3.407  23.451  0.00  0.00     0.086 N 
ATOM     17  C           0      33.191   2.882  22.090  0.00  0.00     0.289 C 
ATOM     18  H           0      32.269   3.013  23.904  0.00  0.00     0.316 HD
ATOM     19  C           0      34.421   3.431  21.366  0.00  0.00     0.153 C 
ENDBRANCH   8  13
BRANCH   3  20
ATOM     20  C           0      40.497   3.564  23.951  0.00  0.00     0.090 A 
ATOM     21  C           0      41.149   4.708  24.651  0.00  0.00     0.028 A 
ATOM     22  C           0      39.654   4.583  24.642  0.00  0.00     0.028 A 
ENDBRANCH   3  20
BRANCH   9  23
ATOM     23  C           0      43.276   3.450  19.975  0.00  0.00     0.181 C 
ATOM     24  O           0      44.268   3.657  20.651  0.00  0.00    -0.646 OA
BRANCH  23  25
ATOM     25  O           0      43.260   3.222  18.645  0.00  0.00    -0.772 OA
ATOM     26  H           0      42.700   2.451  18.409  0.00  0.00     0.167 HD
ENDBRANCH  23  25
ENDBRANCH   9  23
TORSDOF 4
