REMARK  4 active torsions:
REMARK  status: ('A' for Active; 'I' for Inactive)
REMARK    1  A    between atoms: O_3  and  C_24 
REMARK    2  A    between atoms: N_5  and  C_8 
REMARK    3  A    between atoms: N_6  and  C_15 
REMARK    4  A    between atoms: C_18  and  C_24 
ROOT
ATOM      1  F           0      35.900   2.925  19.513  0.00  0.00    -0.204 F 
ATOM      2  O           0      40.798   3.306  18.421  0.00  0.00    -0.286 OA
ATOM      3  N           0      40.579   3.649  22.477  0.00  0.00    -0.350 N 
ATOM      4  C           0      39.370   3.467  21.749  0.00  0.00     0.051 A 
ATOM      5  C           0      41.782   3.705  21.800  0.00  0.00     0.114 A 
ATOM      6  C           0      39.416   3.345  20.343  0.00  0.00     0.045 A 
ATOM      7  C           0      38.113   3.400  22.372  0.00  0.00     0.063 A 
ATOM      8  C           0      36.947   3.219  21.622  0.00  0.00     0.071 A 
ATOM      9  C           0      41.937   3.602  20.474  0.00  0.00     0.104 A 
ATOM     10  C           0      40.724   3.409  19.639  0.00  0.00     0.202 A 
ATOM     11  C           0      38.248   3.163  19.592  0.00  0.00     0.062 A 
ATOM     12  C           0      37.014   3.101  20.238  0.00  0.00     0.143 A 
ENDROOT
BRANCH   8  13
ATOM     13  N           0      35.708   3.157  22.269  0.00  0.00    -0.375 N 
ATOM     14  C           0      35.663   3.459  23.706  0.00  0.00     0.153 C 
ATOM     15  C           0      34.406   2.863  24.340  0.00  0.00     0.289 C 
ATOM     16  N           0      33.201   3.284  23.628  0.00  0.00     0.086 N 
ATOM     17  C           0      33.265   2.854  22.232  0.00  0.00     0.289 C 
ATOM     18  H           0      32.384   2.863  24.072  0.00  0.00     0.316 HD
ATOM     19  C           0      34.480   3.447  21.520  0.00  0.00     0.153 C 
ENDBRANCH   8  13
BRANCH   3  20
ATOM     20  C           0      40.585   3.782  23.951  0.00  0.00     0.090 A 
ATOM     21  C           0      41.117   5.013  24.605  0.00  0.00     0.028 A 
ATOM     22  C           0      39.646   4.716  24.639  0.00  0.00     0.028 A 
ENDBRANCH   3  20
BRANCH   9  23
ATOM     23  C           0      43.291   3.685  19.925  0.00  0.00     0.181 C 
ATOM     24  O           0      44.254   4.126  20.525  0.00  0.00    -0.646 OA
BRANCH  23  25
ATOM     25  O           0      43.299   3.202  18.664  0.00  0.00    -0.772 OA
ATOM     26  H           0      42.658   2.468  18.546  0.00  0.00     0.167 HD
ENDBRANCH  23  25
ENDBRANCH   9  23
TORSDOF 4
