REMARK  4 active torsions:
REMARK  status: ('A' for Active; 'I' for Inactive)
REMARK    1  A    between atoms: O_3  and  C_24 
REMARK    2  A    between atoms: N_5  and  C_8 
REMARK    3  A    between atoms: N_6  and  C_15 
REMARK    4  A    between atoms: C_18  and  C_24 
ROOT
ATOM      1  F           0      35.846   3.093  19.413  0.00  0.00    -0.204 F 
ATOM      2  O           0      40.781   3.225  18.431  0.00  0.00    -0.286 OA
ATOM      3  N           0      40.496   3.363  22.496  0.00  0.00    -0.350 N 
ATOM      4  C           0      39.294   3.296  21.737  0.00  0.00     0.051 A 
ATOM      5  C           0      41.715   3.380  21.845  0.00  0.00     0.114 A 
ATOM      6  C           0      39.363   3.247  20.327  0.00  0.00     0.045 A 
ATOM      7  C           0      38.022   3.275  22.333  0.00  0.00     0.063 A 
ATOM      8  C           0      36.864   3.208  21.553  0.00  0.00     0.071 A 
ATOM      9  C           0      41.891   3.338  20.518  0.00  0.00     0.104 A 
ATOM     10  C           0      40.687   3.267  19.652  0.00  0.00     0.202 A 
ATOM     11  C           0      38.202   3.179  19.547  0.00  0.00     0.062 A 
ATOM     12  C           0      36.953   3.160  20.166  0.00  0.00     0.143 A 
ENDROOT
BRANCH   8  13
ATOM     13  N           0      35.610   3.190  22.174  0.00  0.00    -0.375 N 
ATOM     14  C           0      35.532   3.586  23.586  0.00  0.00     0.153 C 
ATOM     15  C           0      34.259   3.034  24.228  0.00  0.00     0.289 C 
ATOM     16  N           0      33.072   3.406  23.461  0.00  0.00     0.086 N 
ATOM     17  C           0      33.168   2.884  22.099  0.00  0.00     0.289 C 
ATOM     18  H           0      32.244   3.015  23.913  0.00  0.00     0.316 HD
ATOM     19  C           0      34.401   3.429  21.378  0.00  0.00     0.153 C 
ENDBRANCH   8  13
BRANCH   3  20
ATOM     20  C           0      40.479   3.416  23.975  0.00  0.00     0.090 A 
ATOM     21  C           0      41.042   4.590  24.704  0.00  0.00     0.028 A 
ATOM     22  C           0      39.561   4.346  24.697  0.00  0.00     0.028 A 
ENDBRANCH   3  20
BRANCH   9  23
ATOM     23  C           0      43.259   3.366  19.999  0.00  0.00     0.181 C 
ATOM     24  O           0      44.257   3.486  20.686  0.00  0.00    -0.646 OA
BRANCH  23  25
ATOM     25  O           0      43.236   3.239  18.655  0.00  0.00    -0.772 OA
ATOM     26  H           0      42.705   2.466  18.366  0.00  0.00     0.167 HD
ENDBRANCH  23  25
ENDBRANCH   9  23
TORSDOF 4
