REMARK  4 active torsions:
REMARK  status: ('A' for Active; 'I' for Inactive)
REMARK    1  A    between atoms: O_3  and  C_24 
REMARK    2  A    between atoms: N_5  and  C_8 
REMARK    3  A    between atoms: N_6  and  C_15 
REMARK    4  A    between atoms: C_18  and  C_24 
ROOT
ATOM      1  F           0      35.507   3.222  19.426  0.00  0.00    -0.204 F 
ATOM      2  O           0      40.392   3.224  18.212  0.00  0.00    -0.286 OA
ATOM      3  N           0      40.304   3.221  22.288  0.00  0.00    -0.350 N 
ATOM      4  C           0      39.066   3.223  21.586  0.00  0.00     0.051 A 
ATOM      5  C           0      41.491   3.221  21.580  0.00  0.00     0.114 A 
ATOM      6  C           0      39.066   3.224  20.174  0.00  0.00     0.045 A 
ATOM      7  C           0      37.824   3.222  22.242  0.00  0.00     0.063 A 
ATOM      8  C           0      36.628   3.223  21.517  0.00  0.00     0.071 A 
ATOM      9  C           0      41.603   3.223  20.246  0.00  0.00     0.104 A 
ATOM     10  C           0      40.357   3.224  19.437  0.00  0.00     0.202 A 
ATOM     11  C           0      37.868   3.224  19.449  0.00  0.00     0.062 A 
ATOM     12  C           0      36.650   3.224  20.126  0.00  0.00     0.143 A 
ENDROOT
BRANCH   8  13
ATOM     13  N           0      35.405   3.223  22.196  0.00  0.00    -0.375 N 
ATOM     14  C           0      34.205   2.804  21.460  0.00  0.00     0.153 C 
ATOM     15  C           0      32.945   3.339  22.141  0.00  0.00     0.289 C 
ATOM     16  N           0      32.908   2.971  23.556  0.00  0.00     0.086 N 
ATOM     17  C           0      34.075   3.515  24.248  0.00  0.00     0.289 C 
ATOM     18  H           0      32.060   3.350  23.979  0.00  0.00     0.316 HD
ATOM     19  C           0      35.377   2.989  23.645  0.00  0.00     0.153 C 
ENDBRANCH   8  13
BRANCH   3  20
ATOM     20  C           0      40.359   3.219  23.767  0.00  0.00     0.090 A 
ATOM     21  C           0      40.778   4.439  24.517  0.00  0.00     0.028 A 
ATOM     22  C           0      39.352   3.973  24.570  0.00  0.00     0.028 A 
ENDBRANCH   3  20
BRANCH   9  23
ATOM     23  C           0      42.945   3.223  19.662  0.00  0.00     0.181 C 
ATOM     24  O           0      43.310   3.966  18.768  0.00  0.00    -0.646 OA
BRANCH  23  25
ATOM     25  O           0      43.701   2.280  20.263  0.00  0.00    -0.772 OA
ATOM     26  H           0      43.661   1.419  19.793  0.00  0.00     0.167 HD
ENDBRANCH  23  25
ENDBRANCH   9  23
TORSDOF 4
