REMARK  4 active torsions:
REMARK  status: ('A' for Active; 'I' for Inactive)
REMARK    1  A    between atoms: O_3  and  C_24 
REMARK    2  A    between atoms: N_5  and  C_8 
REMARK    3  A    between atoms: N_6  and  C_15 
REMARK    4  A    between atoms: C_18  and  C_24 
ROOT
ATOM      1  F           0      35.757   2.839  19.601  0.00  0.00    -0.204 F 
ATOM      2  O           0      40.611   3.226  18.325  0.00  0.00    -0.286 OA
ATOM      3  N           0      40.522   3.762  22.366  0.00  0.00    -0.350 N 
ATOM      4  C           0      39.292   3.530  21.688  0.00  0.00     0.051 A 
ATOM      5  C           0      41.701   3.800  21.646  0.00  0.00     0.114 A 
ATOM      6  C           0      39.293   3.341  20.289  0.00  0.00     0.045 A 
ATOM      7  C           0      38.058   3.479  22.356  0.00  0.00     0.063 A 
ATOM      8  C           0      36.870   3.248  21.656  0.00  0.00     0.071 A 
ATOM      9  C           0      41.813   3.634  20.322  0.00  0.00     0.104 A 
ATOM     10  C           0      40.576   3.387  19.539  0.00  0.00     0.202 A 
ATOM     11  C           0      38.103   3.109  19.588  0.00  0.00     0.062 A 
ATOM     12  C           0      36.893   3.063  20.277  0.00  0.00     0.143 A 
ENDROOT
BRANCH   8  13
ATOM     13  N           0      35.655   3.203  22.347  0.00  0.00    -0.375 N 
ATOM     14  C           0      35.655   3.569  23.770  0.00  0.00     0.153 C 
ATOM     15  C           0      34.427   2.990  24.472  0.00  0.00     0.289 C 
ATOM     16  N           0      33.193   3.365  23.784  0.00  0.00     0.086 N 
ATOM     17  C           0      33.215   2.872  22.407  0.00  0.00     0.289 C 
ATOM     18  H           0      32.397   2.956  24.274  0.00  0.00     0.316 HD
ATOM     19  C           0      34.399   3.445  21.628  0.00  0.00     0.153 C 
ENDBRANCH   8  13
BRANCH   3  20
ATOM     20  C           0      40.576   3.967  23.830  0.00  0.00     0.090 A 
ATOM     21  C           0      41.504   4.970  24.428  0.00  0.00     0.028 A 
ATOM     22  C           0      40.022   5.206  24.451  0.00  0.00     0.028 A 
ENDBRANCH   3  20
BRANCH   9  23
ATOM     23  C           0      43.147   3.707  19.723  0.00  0.00     0.181 C 
ATOM     24  O           0      44.049   4.417  20.129  0.00  0.00    -0.646 OA
BRANCH  23  25
ATOM     25  O           0      43.214   2.873  18.664  0.00  0.00    -0.772 OA
ATOM     26  H           0      42.342   2.475  18.452  0.00  0.00     0.167 HD
ENDBRANCH  23  25
ENDBRANCH   9  23
TORSDOF 4
