REMARK  4 active torsions:
REMARK  status: ('A' for Active; 'I' for Inactive)
REMARK    1  A    between atoms: O_3  and  C_24 
REMARK    2  A    between atoms: N_5  and  C_8 
REMARK    3  A    between atoms: N_6  and  C_15 
REMARK    4  A    between atoms: C_18  and  C_24 
ROOT
ATOM      1  F           0      35.523   3.223  19.450  0.00  0.00    -0.204 F 
ATOM      2  O           0      40.393   3.185  18.179  0.00  0.00    -0.286 OA
ATOM      3  N           0      40.353   3.294  22.254  0.00  0.00    -0.350 N 
ATOM      4  C           0      39.107   3.278  21.567  0.00  0.00     0.051 A 
ATOM      5  C           0      41.531   3.273  21.532  0.00  0.00     0.114 A 
ATOM      6  C           0      39.091   3.240  20.156  0.00  0.00     0.045 A 
ATOM      7  C           0      37.872   3.297  22.237  0.00  0.00     0.063 A 
ATOM      8  C           0      36.668   3.280  21.527  0.00  0.00     0.071 A 
ATOM      9  C           0      41.628   3.238  20.197  0.00  0.00     0.104 A 
ATOM     10  C           0      40.372   3.219  19.403  0.00  0.00     0.202 A 
ATOM     11  C           0      37.884   3.222  19.445  0.00  0.00     0.062 A 
ATOM     12  C           0      36.674   3.242  20.136  0.00  0.00     0.143 A 
ENDROOT
BRANCH   8  13
ATOM     13  N           0      35.454   3.301  22.221  0.00  0.00    -0.375 N 
ATOM     14  C           0      34.247   2.849  21.515  0.00  0.00     0.153 C 
ATOM     15  C           0      32.992   3.403  22.191  0.00  0.00     0.289 C 
ATOM     16  N           0      32.974   3.089  23.618  0.00  0.00     0.086 N 
ATOM     17  C           0      34.146   3.664  24.276  0.00  0.00     0.289 C 
ATOM     18  H           0      32.129   3.480  24.037  0.00  0.00     0.316 HD
ATOM     19  C           0      35.444   3.121  23.677  0.00  0.00     0.153 C 
ENDBRANCH   8  13
BRANCH   3  20
ATOM     20  C           0      40.425   3.333  23.731  0.00  0.00     0.090 A 
ATOM     21  C           0      41.146   4.435  24.432  0.00  0.00     0.028 A 
ATOM     22  C           0      39.650   4.344  24.509  0.00  0.00     0.028 A 
ENDBRANCH   3  20
BRANCH   9  23
ATOM     23  C           0      42.962   3.220  19.598  0.00  0.00     0.181 C 
ATOM     24  O           0      43.333   3.971  18.713  0.00  0.00    -0.646 OA
BRANCH  23  25
ATOM     25  O           0      43.706   2.251  20.173  0.00  0.00    -0.772 OA
ATOM     26  H           0      43.514   1.366  19.795  0.00  0.00     0.167 HD
ENDBRANCH  23  25
ENDBRANCH   9  23
TORSDOF 4
