REMARK  4 active torsions:
REMARK  status: ('A' for Active; 'I' for Inactive)
REMARK    1  A    between atoms: O_3  and  C_24 
REMARK    2  A    between atoms: N_5  and  C_8 
REMARK    3  A    between atoms: N_6  and  C_15 
REMARK    4  A    between atoms: C_18  and  C_24 
ROOT
ATOM      1  F           0      35.741   2.902  19.600  0.00  0.00    -0.204 F 
ATOM      2  O           0      40.602   3.226  18.336  0.00  0.00    -0.286 OA
ATOM      3  N           0      40.524   3.630  22.392  0.00  0.00    -0.350 N 
ATOM      4  C           0      39.289   3.447  21.708  0.00  0.00     0.051 A 
ATOM      5  C           0      41.704   3.667  21.674  0.00  0.00     0.114 A 
ATOM      6  C           0      39.286   3.304  20.303  0.00  0.00     0.045 A 
ATOM      7  C           0      38.054   3.401  22.375  0.00  0.00     0.063 A 
ATOM      8  C           0      36.861   3.218  21.668  0.00  0.00     0.071 A 
ATOM      9  C           0      41.812   3.542  20.345  0.00  0.00     0.104 A 
ATOM     10  C           0      40.570   3.348  19.555  0.00  0.00     0.202 A 
ATOM     11  C           0      38.092   3.121  19.596  0.00  0.00     0.062 A 
ATOM     12  C           0      36.881   3.079  20.283  0.00  0.00     0.143 A 
ENDROOT
BRANCH   8  13
ATOM     13  N           0      35.645   3.176  22.357  0.00  0.00    -0.375 N 
ATOM     14  C           0      35.663   3.426  23.805  0.00  0.00     0.153 C 
ATOM     15  C           0      34.408   2.852  24.463  0.00  0.00     0.289 C 
ATOM     16  N           0      33.194   3.341  23.811  0.00  0.00     0.086 N 
ATOM     17  C           0      33.192   2.961  22.399  0.00  0.00     0.289 C 
ATOM     18  H           0      32.379   2.933  24.269  0.00  0.00     0.316 HD
ATOM     19  C           0      34.403   3.537  21.665  0.00  0.00     0.153 C 
ENDBRANCH   8  13
BRANCH   3  20
ATOM     20  C           0      40.581   3.785  23.863  0.00  0.00     0.090 A 
ATOM     21  C           0      41.114   5.035  24.479  0.00  0.00     0.028 A 
ATOM     22  C           0      39.651   4.711  24.572  0.00  0.00     0.028 A 
ENDBRANCH   3  20
BRANCH   9  23
ATOM     23  C           0      43.147   3.606  19.749  0.00  0.00     0.181 C 
ATOM     24  O           0      44.085   4.226  20.218  0.00  0.00    -0.646 OA
BRANCH  23  25
ATOM     25  O           0      43.171   2.878  18.612  0.00  0.00    -0.772 OA
ATOM     26  H           0      42.449   2.214  18.583  0.00  0.00     0.167 HD
ENDBRANCH  23  25
ENDBRANCH   9  23
TORSDOF 4
