REMARK  4 active torsions:
REMARK  status: ('A' for Active; 'I' for Inactive)
REMARK    1  A    between atoms: O_3  and  C_24 
REMARK    2  A    between atoms: N_5  and  C_8 
REMARK    3  A    between atoms: N_6  and  C_15 
REMARK    4  A    between atoms: C_18  and  C_24 
ROOT
ATOM      1  F           0      35.712   3.186  19.428  0.00  0.00    -0.204 F 
ATOM      2  O           0      40.615   3.221  18.290  0.00  0.00    -0.286 OA
ATOM      3  N           0      40.463   3.338  22.362  0.00  0.00    -0.350 N 
ATOM      4  C           0      39.236   3.301  21.641  0.00  0.00     0.051 A 
ATOM      5  C           0      41.660   3.334  21.673  0.00  0.00     0.114 A 
ATOM      6  C           0      39.259   3.260  20.230  0.00  0.00     0.045 A 
ATOM      7  C           0      37.983   3.303  22.278  0.00  0.00     0.063 A 
ATOM      8  C           0      36.799   3.265  21.535  0.00  0.00     0.071 A 
ATOM      9  C           0      41.793   3.297  20.341  0.00  0.00     0.104 A 
ATOM     10  C           0      40.561   3.257  19.513  0.00  0.00     0.202 A 
ATOM     11  C           0      38.073   3.222  19.487  0.00  0.00     0.062 A 
ATOM     12  C           0      36.844   3.225  20.145  0.00  0.00     0.143 A 
ENDROOT
BRANCH   8  13
ATOM     13  N           0      35.566   3.268  22.195  0.00  0.00    -0.375 N 
ATOM     14  C           0      34.378   2.848  21.441  0.00  0.00     0.153 C 
ATOM     15  C           0      33.107   3.385  22.101  0.00  0.00     0.289 C 
ATOM     16  N           0      33.047   3.022  23.515  0.00  0.00     0.086 N 
ATOM     17  C           0      34.204   3.567  24.225  0.00  0.00     0.289 C 
ATOM     18  H           0      32.194   3.402  23.924  0.00  0.00     0.316 HD
ATOM     19  C           0      35.515   3.038  23.643  0.00  0.00     0.153 C 
ENDBRANCH   8  13
BRANCH   3  20
ATOM     20  C           0      40.494   3.381  23.841  0.00  0.00     0.090 A 
ATOM     21  C           0      41.133   4.522  24.559  0.00  0.00     0.028 A 
ATOM     22  C           0      39.643   4.347  24.596  0.00  0.00     0.028 A 
ENDBRANCH   3  20
BRANCH   9  23
ATOM     23  C           0      43.144   3.299  19.778  0.00  0.00     0.181 C 
ATOM     24  O           0      44.024   2.516  20.088  0.00  0.00    -0.646 OA
BRANCH  23  25
ATOM     25  O           0      43.258   4.296  18.875  0.00  0.00    -0.772 OA
ATOM     26  H           0      42.403   4.492  18.432  0.00  0.00     0.167 HD
ENDBRANCH  23  25
ENDBRANCH   9  23
TORSDOF 4
