REMARK  4 active torsions:
REMARK  status: ('A' for Active; 'I' for Inactive)
REMARK    1  A    between atoms: O_3  and  C_24 
REMARK    2  A    between atoms: N_5  and  C_8 
REMARK    3  A    between atoms: N_6  and  C_15 
REMARK    4  A    between atoms: C_18  and  C_24 
ROOT
ATOM      1  F           0      35.768   2.800  19.588  0.00  0.00    -0.204 F 
ATOM      2  O           0      40.623   3.224  18.328  0.00  0.00    -0.286 OA
ATOM      3  N           0      40.511   3.803  22.362  0.00  0.00    -0.350 N 
ATOM      4  C           0      39.287   3.551  21.682  0.00  0.00     0.051 A 
ATOM      5  C           0      41.693   3.845  21.647  0.00  0.00     0.114 A 
ATOM      6  C           0      39.296   3.346  20.285  0.00  0.00     0.045 A 
ATOM      7  C           0      38.050   3.494  22.346  0.00  0.00     0.063 A 
ATOM      8  C           0      36.868   3.242  21.643  0.00  0.00     0.071 A 
ATOM      9  C           0      41.812   3.667  20.326  0.00  0.00     0.104 A 
ATOM     10  C           0      40.581   3.398  19.540  0.00  0.00     0.202 A 
ATOM     11  C           0      38.111   3.094  19.582  0.00  0.00     0.062 A 
ATOM     12  C           0      36.898   3.043  20.266  0.00  0.00     0.143 A 
ENDROOT
BRANCH   8  13
ATOM     13  N           0      35.650   3.192  22.330  0.00  0.00    -0.375 N 
ATOM     14  C           0      35.643   3.559  23.752  0.00  0.00     0.153 C 
ATOM     15  C           0      34.415   2.974  24.450  0.00  0.00     0.289 C 
ATOM     16  N           0      33.182   3.343  23.756  0.00  0.00     0.086 N 
ATOM     17  C           0      33.212   2.850  22.380  0.00  0.00     0.289 C 
ATOM     18  H           0      32.386   2.931  24.243  0.00  0.00     0.316 HD
ATOM     19  C           0      34.396   3.428  21.606  0.00  0.00     0.153 C 
ENDBRANCH   8  13
BRANCH   3  20
ATOM     20  C           0      40.557   4.023  23.824  0.00  0.00     0.090 A 
ATOM     21  C           0      41.509   5.006  24.420  0.00  0.00     0.028 A 
ATOM     22  C           0      40.034   5.286  24.425  0.00  0.00     0.028 A 
ENDBRANCH   3  20
BRANCH   9  23
ATOM     23  C           0      43.147   3.747  19.732  0.00  0.00     0.181 C 
ATOM     24  O           0      44.048   4.453  20.148  0.00  0.00    -0.646 OA
BRANCH  23  25
ATOM     25  O           0      43.219   2.925  18.663  0.00  0.00    -0.772 OA
ATOM     26  H           0      42.375   2.446  18.509  0.00  0.00     0.167 HD
ENDBRANCH  23  25
ENDBRANCH   9  23
TORSDOF 4
