REMARK  4 active torsions:
REMARK  status: ('A' for Active; 'I' for Inactive)
REMARK    1  A    between atoms: O_3  and  C_24 
REMARK    2  A    between atoms: N_5  and  C_8 
REMARK    3  A    between atoms: N_6  and  C_15 
REMARK    4  A    between atoms: C_18  and  C_24 
ROOT
ATOM      1  F           0      35.520   3.211  19.449  0.00  0.00    -0.204 F 
ATOM      2  O           0      40.393   3.191  18.190  0.00  0.00    -0.286 OA
ATOM      3  N           0      40.343   3.273  22.266  0.00  0.00    -0.350 N 
ATOM      4  C           0      39.098   3.260  21.576  0.00  0.00     0.051 A 
ATOM      5  C           0      41.523   3.259  21.547  0.00  0.00     0.114 A 
ATOM      6  C           0      39.086   3.231  20.164  0.00  0.00     0.045 A 
ATOM      7  C           0      37.862   3.272  22.243  0.00  0.00     0.063 A 
ATOM      8  C           0      36.660   3.257  21.530  0.00  0.00     0.071 A 
ATOM      9  C           0      41.623   3.233  20.212  0.00  0.00     0.104 A 
ATOM     10  C           0      40.369   3.217  19.415  0.00  0.00     0.202 A 
ATOM     11  C           0      37.881   3.215  19.451  0.00  0.00     0.062 A 
ATOM     12  C           0      36.669   3.228  20.139  0.00  0.00     0.143 A 
ENDROOT
BRANCH   8  13
ATOM     13  N           0      35.443   3.271  22.220  0.00  0.00    -0.375 N 
ATOM     14  C           0      34.236   2.840  21.503  0.00  0.00     0.153 C 
ATOM     15  C           0      32.983   3.389  22.186  0.00  0.00     0.289 C 
ATOM     16  N           0      32.958   3.046  23.607  0.00  0.00     0.086 N 
ATOM     17  C           0      34.132   3.601  24.279  0.00  0.00     0.289 C 
ATOM     18  H           0      32.115   3.433  24.031  0.00  0.00     0.316 HD
ATOM     19  C           0      35.428   3.063  23.673  0.00  0.00     0.153 C 
ENDBRANCH   8  13
BRANCH   3  20
ATOM     20  C           0      40.411   3.304  23.744  0.00  0.00     0.090 A 
ATOM     21  C           0      41.095   4.423  24.455  0.00  0.00     0.028 A 
ATOM     22  C           0      39.603   4.283  24.528  0.00  0.00     0.028 A 
ENDBRANCH   3  20
BRANCH   9  23
ATOM     23  C           0      42.959   3.222  19.616  0.00  0.00     0.181 C 
ATOM     24  O           0      43.338   3.993  18.753  0.00  0.00    -0.646 OA
BRANCH  23  25
ATOM     25  O           0      43.693   2.232  20.167  0.00  0.00    -0.772 OA
ATOM     26  H           0      43.335   1.343  19.954  0.00  0.00     0.167 HD
ENDBRANCH  23  25
ENDBRANCH   9  23
TORSDOF 4
