REMARK  4 active torsions:
REMARK  status: ('A' for Active; 'I' for Inactive)
REMARK    1  A    between atoms: O_3  and  C_24 
REMARK    2  A    between atoms: N_5  and  C_8 
REMARK    3  A    between atoms: N_6  and  C_15 
REMARK    4  A    between atoms: C_18  and  C_24 
ROOT
ATOM      1  F           0      35.847   2.793  19.631  0.00  0.00    -0.204 F 
ATOM      2  O           0      40.720   3.229  18.452  0.00  0.00    -0.286 OA
ATOM      3  N           0      40.536   3.850  22.477  0.00  0.00    -0.350 N 
ATOM      4  C           0      39.324   3.584  21.778  0.00  0.00     0.051 A 
ATOM      5  C           0      41.729   3.891  21.782  0.00  0.00     0.114 A 
ATOM      6  C           0      39.359   3.365  20.384  0.00  0.00     0.045 A 
ATOM      7  C           0      38.076   3.527  22.421  0.00  0.00     0.063 A 
ATOM      8  C           0      36.908   3.262  21.701  0.00  0.00     0.071 A 
ATOM      9  C           0      41.872   3.699  20.465  0.00  0.00     0.104 A 
ATOM     10  C           0      40.656   3.416  19.661  0.00  0.00     0.202 A 
ATOM     11  C           0      38.188   3.099  19.663  0.00  0.00     0.062 A 
ATOM     12  C           0      36.963   3.049  20.327  0.00  0.00     0.143 A 
ENDROOT
BRANCH   8  13
ATOM     13  N           0      35.679   3.213  22.367  0.00  0.00    -0.375 N 
ATOM     14  C           0      35.669   3.435  23.819  0.00  0.00     0.153 C 
ATOM     15  C           0      34.400   2.854  24.442  0.00  0.00     0.289 C 
ATOM     16  N           0      33.201   3.360  23.776  0.00  0.00     0.086 N 
ATOM     17  C           0      33.225   3.007  22.358  0.00  0.00     0.289 C 
ATOM     18  H           0      32.376   2.947  24.211  0.00  0.00     0.316 HD
ATOM     19  C           0      34.451   3.591  21.658  0.00  0.00     0.153 C 
ENDBRANCH   8  13
BRANCH   3  20
ATOM     20  C           0      40.554   4.086  23.938  0.00  0.00     0.090 A 
ATOM     21  C           0      41.498   5.072  24.540  0.00  0.00     0.028 A 
ATOM     22  C           0      40.024   5.356  24.515  0.00  0.00     0.028 A 
ENDBRANCH   3  20
BRANCH   9  23
ATOM     23  C           0      43.217   3.780  19.894  0.00  0.00     0.181 C 
ATOM     24  O           0      44.178   4.275  20.455  0.00  0.00    -0.646 OA
BRANCH  23  25
ATOM     25  O           0      43.221   3.227  18.662  0.00  0.00    -0.772 OA
ATOM     26  H           0      42.654   2.427  18.615  0.00  0.00     0.167 HD
ENDBRANCH  23  25
ENDBRANCH   9  23
TORSDOF 4
