REMARK  4 active torsions:
REMARK  status: ('A' for Active; 'I' for Inactive)
REMARK    1  A    between atoms: O_3  and  C_24 
REMARK    2  A    between atoms: N_5  and  C_8 
REMARK    3  A    between atoms: N_6  and  C_15 
REMARK    4  A    between atoms: C_18  and  C_24 
ROOT
ATOM      1  F           0      35.773   2.768  19.616  0.00  0.00    -0.204 F 
ATOM      2  O           0      40.609   3.221  18.297  0.00  0.00    -0.286 OA
ATOM      3  N           0      40.535   3.866  22.322  0.00  0.00    -0.350 N 
ATOM      4  C           0      39.306   3.590  21.660  0.00  0.00     0.051 A 
ATOM      5  C           0      41.708   3.909  21.594  0.00  0.00     0.114 A 
ATOM      6  C           0      39.302   3.362  20.266  0.00  0.00     0.045 A 
ATOM      7  C           0      38.077   3.531  22.338  0.00  0.00     0.063 A 
ATOM      8  C           0      36.890   3.255  21.652  0.00  0.00     0.071 A 
ATOM      9  C           0      41.815   3.709  20.274  0.00  0.00     0.104 A 
ATOM     10  C           0      40.578   3.415  19.507  0.00  0.00     0.202 A 
ATOM     11  C           0      38.113   3.086  19.580  0.00  0.00     0.062 A 
ATOM     12  C           0      36.908   3.034  20.278  0.00  0.00     0.143 A 
ENDROOT
BRANCH   8  13
ATOM     13  N           0      35.680   3.204  22.352  0.00  0.00    -0.375 N 
ATOM     14  C           0      35.710   3.436  23.802  0.00  0.00     0.153 C 
ATOM     15  C           0      34.462   2.852  24.465  0.00  0.00     0.289 C 
ATOM     16  N           0      33.242   3.347  23.830  0.00  0.00     0.086 N 
ATOM     17  C           0      33.228   2.984  22.414  0.00  0.00     0.289 C 
ATOM     18  H           0      32.432   2.933  24.291  0.00  0.00     0.316 HD
ATOM     19  C           0      34.431   3.571  21.676  0.00  0.00     0.153 C 
ENDBRANCH   8  13
BRANCH   3  20
ATOM     20  C           0      40.593   4.111  23.780  0.00  0.00     0.090 A 
ATOM     21  C           0      41.511   5.142  24.346  0.00  0.00     0.028 A 
ATOM     22  C           0      40.026   5.359  24.370  0.00  0.00     0.028 A 
ENDBRANCH   3  20
BRANCH   9  23
ATOM     23  C           0      43.143   3.793  19.665  0.00  0.00     0.181 C 
ATOM     24  O           0      44.017   4.565  20.016  0.00  0.00    -0.646 OA
BRANCH  23  25
ATOM     25  O           0      43.241   2.892  18.665  0.00  0.00    -0.772 OA
ATOM     26  H           0      42.387   2.441  18.489  0.00  0.00     0.167 HD
ENDBRANCH  23  25
ENDBRANCH   9  23
TORSDOF 4
