REMARK  4 active torsions:
REMARK  status: ('A' for Active; 'I' for Inactive)
REMARK    1  A    between atoms: O_3  and  C_24 
REMARK    2  A    between atoms: N_5  and  C_8 
REMARK    3  A    between atoms: N_6  and  C_15 
REMARK    4  A    between atoms: C_18  and  C_24 
ROOT
ATOM      1  F           0      35.523   3.222  19.411  0.00  0.00    -0.204 F 
ATOM      2  O           0      40.407   3.222  18.192  0.00  0.00    -0.286 OA
ATOM      3  N           0      40.323   3.220  22.269  0.00  0.00    -0.350 N 
ATOM      4  C           0      39.084   3.222  21.568  0.00  0.00     0.051 A 
ATOM      5  C           0      41.509   3.219  21.559  0.00  0.00     0.114 A 
ATOM      6  C           0      39.083   3.222  20.156  0.00  0.00     0.045 A 
ATOM      7  C           0      37.842   3.222  22.225  0.00  0.00     0.063 A 
ATOM      8  C           0      36.646   3.223  21.501  0.00  0.00     0.071 A 
ATOM      9  C           0      41.619   3.220  20.225  0.00  0.00     0.104 A 
ATOM     10  C           0      40.373   3.222  19.417  0.00  0.00     0.202 A 
ATOM     11  C           0      37.884   3.223  19.432  0.00  0.00     0.062 A 
ATOM     12  C           0      36.667   3.223  20.110  0.00  0.00     0.143 A 
ENDROOT
BRANCH   8  13
ATOM     13  N           0      35.424   3.225  22.182  0.00  0.00    -0.375 N 
ATOM     14  C           0      34.216   2.849  21.435  0.00  0.00     0.153 C 
ATOM     15  C           0      32.966   3.384  22.133  0.00  0.00     0.289 C 
ATOM     16  N           0      32.923   2.975  23.536  0.00  0.00     0.086 N 
ATOM     17  C           0      34.100   3.477  24.243  0.00  0.00     0.289 C 
ATOM     18  H           0      32.083   3.355  23.971  0.00  0.00     0.316 HD
ATOM     19  C           0      35.393   2.947  23.622  0.00  0.00     0.153 C 
ENDBRANCH   8  13
BRANCH   3  20
ATOM     20  C           0      40.379   3.219  23.747  0.00  0.00     0.090 A 
ATOM     21  C           0      40.839   4.425  24.495  0.00  0.00     0.028 A 
ATOM     22  C           0      39.399   4.007  24.551  0.00  0.00     0.028 A 
ENDBRANCH   3  20
BRANCH   9  23
ATOM     23  C           0      42.961   3.220  19.639  0.00  0.00     0.181 C 
ATOM     24  O           0      43.307   3.919  18.704  0.00  0.00    -0.646 OA
BRANCH  23  25
ATOM     25  O           0      43.740   2.332  20.293  0.00  0.00    -0.772 OA
ATOM     26  H           0      43.844   1.493  19.792  0.00  0.00     0.167 HD
ENDBRANCH  23  25
ENDBRANCH   9  23
TORSDOF 4
