REMARK  4 active torsions:
REMARK  status: ('A' for Active; 'I' for Inactive)
REMARK    1  A    between atoms: O_3  and  C_24 
REMARK    2  A    between atoms: N_5  and  C_8 
REMARK    3  A    between atoms: N_6  and  C_15 
REMARK    4  A    between atoms: C_18  and  C_24 
ROOT
ATOM      1  F           0      35.851   3.080  19.393  0.00  0.00    -0.204 F 
ATOM      2  O           0      40.787   3.257  18.421  0.00  0.00    -0.286 OA
ATOM      3  N           0      40.493   3.397  22.485  0.00  0.00    -0.350 N 
ATOM      4  C           0      39.293   3.318  21.723  0.00  0.00     0.051 A 
ATOM      5  C           0      41.713   3.425  21.836  0.00  0.00     0.114 A 
ATOM      6  C           0      39.365   3.268  20.314  0.00  0.00     0.045 A 
ATOM      7  C           0      38.020   3.286  22.317  0.00  0.00     0.063 A 
ATOM      8  C           0      36.864   3.206  21.535  0.00  0.00     0.071 A 
ATOM      9  C           0      41.892   3.383  20.510  0.00  0.00     0.104 A 
ATOM     10  C           0      40.690   3.300  19.642  0.00  0.00     0.202 A 
ATOM     11  C           0      38.206   3.188  19.532  0.00  0.00     0.062 A 
ATOM     12  C           0      36.957   3.158  20.148  0.00  0.00     0.143 A 
ENDROOT
BRANCH   8  13
ATOM     13  N           0      35.609   3.177  22.153  0.00  0.00    -0.375 N 
ATOM     14  C           0      35.525   3.572  23.566  0.00  0.00     0.153 C 
ATOM     15  C           0      34.256   3.008  24.205  0.00  0.00     0.289 C 
ATOM     16  N           0      33.067   3.371  23.436  0.00  0.00     0.086 N 
ATOM     17  C           0      33.170   2.851  22.074  0.00  0.00     0.289 C 
ATOM     18  H           0      32.242   2.973  23.886  0.00  0.00     0.316 HD
ATOM     19  C           0      34.399   3.407  21.356  0.00  0.00     0.153 C 
ENDBRANCH   8  13
BRANCH   3  20
ATOM     20  C           0      40.473   3.452  23.963  0.00  0.00     0.090 A 
ATOM     21  C           0      41.000   4.642  24.691  0.00  0.00     0.028 A 
ATOM     22  C           0      39.527   4.355  24.683  0.00  0.00     0.028 A 
ENDBRANCH   3  20
BRANCH   9  23
ATOM     23  C           0      43.261   3.422  19.993  0.00  0.00     0.181 C 
ATOM     24  O           0      44.250   3.636  20.671  0.00  0.00    -0.646 OA
BRANCH  23  25
ATOM     25  O           0      43.250   3.189  18.663  0.00  0.00    -0.772 OA
ATOM     26  H           0      42.631   2.466  18.420  0.00  0.00     0.167 HD
ENDBRANCH  23  25
ENDBRANCH   9  23
TORSDOF 4
