REMARK  4 active torsions:
REMARK  status: ('A' for Active; 'I' for Inactive)
REMARK    1  A    between atoms: O_3  and  C_24 
REMARK    2  A    between atoms: N_5  and  C_8 
REMARK    3  A    between atoms: N_6  and  C_15 
REMARK    4  A    between atoms: C_18  and  C_24 
ROOT
ATOM      1  F           0      35.703   3.220  19.440  0.00  0.00    -0.204 F 
ATOM      2  O           0      40.572   3.224  18.163  0.00  0.00    -0.286 OA
ATOM      3  N           0      40.537   3.223  22.240  0.00  0.00    -0.350 N 
ATOM      4  C           0      39.290   3.224  21.554  0.00  0.00     0.051 A 
ATOM      5  C           0      41.714   3.223  21.516  0.00  0.00     0.114 A 
ATOM      6  C           0      39.272   3.224  20.142  0.00  0.00     0.045 A 
ATOM      7  C           0      38.056   3.223  22.226  0.00  0.00     0.063 A 
ATOM      8  C           0      36.851   3.222  21.517  0.00  0.00     0.071 A 
ATOM      9  C           0      41.809   3.224  20.181  0.00  0.00     0.104 A 
ATOM     10  C           0      40.553   3.225  19.388  0.00  0.00     0.202 A 
ATOM     11  C           0      38.065   3.223  19.433  0.00  0.00     0.062 A 
ATOM     12  C           0      36.856   3.223  20.126  0.00  0.00     0.143 A 
ENDROOT
BRANCH   8  13
ATOM     13  N           0      35.637   3.223  22.212  0.00  0.00    -0.375 N 
ATOM     14  C           0      35.665   3.515  23.651  0.00  0.00     0.153 C 
ATOM     15  C           0      34.403   2.983  24.330  0.00  0.00     0.289 C 
ATOM     16  N           0      33.195   3.474  23.669  0.00  0.00     0.086 N 
ATOM     17  C           0      33.181   3.053  22.269  0.00  0.00     0.289 C 
ATOM     18  H           0      32.375   3.095  24.142  0.00  0.00     0.316 HD
ATOM     19  C           0      34.399   3.585  21.514  0.00  0.00     0.153 C 
ENDBRANCH   8  13
BRANCH   3  20
ATOM     20  C           0      40.611   3.223  23.718  0.00  0.00     0.090 A 
ATOM     21  C           0      41.141   4.405  24.457  0.00  0.00     0.028 A 
ATOM     22  C           0      39.682   4.061  24.531  0.00  0.00     0.028 A 
ENDBRANCH   3  20
BRANCH   9  23
ATOM     23  C           0      43.143   3.225  19.579  0.00  0.00     0.181 C 
ATOM     24  O           0      43.497   3.969  18.682  0.00  0.00    -0.646 OA
BRANCH  23  25
ATOM     25  O           0      43.908   2.282  20.170  0.00  0.00    -0.772 OA
ATOM     26  H           0      43.702   1.380  19.840  0.00  0.00     0.167 HD
ENDBRANCH  23  25
ENDBRANCH   9  23
TORSDOF 4
