REMARK  4 active torsions:
REMARK  status: ('A' for Active; 'I' for Inactive)
REMARK    1  A    between atoms: O_3  and  C_24 
REMARK    2  A    between atoms: N_5  and  C_8 
REMARK    3  A    between atoms: N_6  and  C_15 
REMARK    4  A    between atoms: C_18  and  C_24 
ROOT
ATOM      1  F           0      35.753   3.137  19.402  0.00  0.00    -0.204 F 
ATOM      2  O           0      40.641   3.216  18.202  0.00  0.00    -0.286 OA
ATOM      3  N           0      40.539   3.321  22.277  0.00  0.00    -0.350 N 
ATOM      4  C           0      39.304   3.276  21.571  0.00  0.00     0.051 A 
ATOM      5  C           0      41.728   3.328  21.572  0.00  0.00     0.114 A 
ATOM      6  C           0      39.309   3.238  20.160  0.00  0.00     0.045 A 
ATOM      7  C           0      38.060   3.265  22.223  0.00  0.00     0.063 A 
ATOM      8  C           0      36.867   3.219  21.496  0.00  0.00     0.071 A 
ATOM      9  C           0      41.845   3.296  20.239  0.00  0.00     0.104 A 
ATOM     10  C           0      40.602   3.248  19.427  0.00  0.00     0.202 A 
ATOM     11  C           0      38.114   3.192  19.432  0.00  0.00     0.062 A 
ATOM     12  C           0      36.894   3.183  20.105  0.00  0.00     0.143 A 
ENDROOT
BRANCH   8  13
ATOM     13  N           0      35.642   3.211  22.171  0.00  0.00    -0.375 N 
ATOM     14  C           0      35.632   3.596  23.589  0.00  0.00     0.153 C 
ATOM     15  C           0      34.382   3.054  24.282  0.00  0.00     0.289 C 
ATOM     16  N           0      33.166   3.448  23.572  0.00  0.00     0.086 N 
ATOM     17  C           0      33.195   2.937  22.203  0.00  0.00     0.289 C 
ATOM     18  H           0      32.355   3.064  24.057  0.00  0.00     0.316 HD
ATOM     19  C           0      34.401   3.473  21.432  0.00  0.00     0.153 C 
ENDBRANCH   8  13
BRANCH   3  20
ATOM     20  C           0      40.589   3.361  23.755  0.00  0.00     0.090 A 
ATOM     21  C           0      41.129   4.554  24.470  0.00  0.00     0.028 A 
ATOM     22  C           0      39.663   4.239  24.528  0.00  0.00     0.028 A 
ENDBRANCH   3  20
BRANCH   9  23
ATOM     23  C           0      43.188   3.311  19.659  0.00  0.00     0.181 C 
ATOM     24  O           0      43.569   4.103  18.816  0.00  0.00    -0.646 OA
BRANCH  23  25
ATOM     25  O           0      43.927   2.319  20.200  0.00  0.00    -0.772 OA
ATOM     26  H           0      43.732   1.448  19.790  0.00  0.00     0.167 HD
ENDBRANCH  23  25
ENDBRANCH   9  23
TORSDOF 4
