REMARK  4 active torsions:
REMARK  status: ('A' for Active; 'I' for Inactive)
REMARK    1  A    between atoms: O_3  and  C_24 
REMARK    2  A    between atoms: N_5  and  C_8 
REMARK    3  A    between atoms: N_6  and  C_15 
REMARK    4  A    between atoms: C_18  and  C_24 
ROOT
ATOM      1  F           0      35.820   3.114  19.402  0.00  0.00    -0.204 F 
ATOM      2  O           0      40.744   3.220  18.363  0.00  0.00    -0.286 OA
ATOM      3  N           0      40.508   3.317  22.433  0.00  0.00    -0.350 N 
ATOM      4  C           0      39.297   3.267  21.687  0.00  0.00     0.051 A 
ATOM      5  C           0      41.719   3.332  21.767  0.00  0.00     0.114 A 
ATOM      6  C           0      39.348   3.232  20.276  0.00  0.00     0.045 A 
ATOM      7  C           0      38.032   3.249  22.298  0.00  0.00     0.063 A 
ATOM      8  C           0      36.864   3.198  21.531  0.00  0.00     0.071 A 
ATOM      9  C           0      41.880   3.303  20.438  0.00  0.00     0.104 A 
ATOM     10  C           0      40.664   3.250  19.586  0.00  0.00     0.202 A 
ATOM     11  C           0      38.178   3.181  19.509  0.00  0.00     0.062 A 
ATOM     12  C           0      36.937   3.164  20.142  0.00  0.00     0.143 A 
ENDROOT
BRANCH   8  13
ATOM     13  N           0      35.617   3.182  22.166  0.00  0.00    -0.375 N 
ATOM     14  C           0      35.556   3.583  23.578  0.00  0.00     0.153 C 
ATOM     15  C           0      34.290   3.033  24.236  0.00  0.00     0.289 C 
ATOM     16  N           0      33.094   3.404  23.482  0.00  0.00     0.086 N 
ATOM     17  C           0      33.174   2.879  22.120  0.00  0.00     0.289 C 
ATOM     18  H           0      32.272   3.016  23.944  0.00  0.00     0.316 HD
ATOM     19  C           0      34.399   3.421  21.384  0.00  0.00     0.153 C 
ENDBRANCH   8  13
BRANCH   3  20
ATOM     20  C           0      40.509   3.355  23.912  0.00  0.00     0.090 A 
ATOM     21  C           0      41.143   4.488  24.647  0.00  0.00     0.028 A 
ATOM     22  C           0      39.651   4.326  24.653  0.00  0.00     0.028 A 
ENDBRANCH   3  20
BRANCH   9  23
ATOM     23  C           0      43.241   3.326  19.903  0.00  0.00     0.181 C 
ATOM     24  O           0      44.238   3.571  20.559  0.00  0.00    -0.646 OA
BRANCH  23  25
ATOM     25  O           0      43.215   3.037  18.584  0.00  0.00    -0.772 OA
ATOM     26  H           0      42.447   2.474  18.345  0.00  0.00     0.167 HD
ENDBRANCH  23  25
ENDBRANCH   9  23
TORSDOF 4
