REMARK  4 active torsions:
REMARK  status: ('A' for Active; 'I' for Inactive)
REMARK    1  A    between atoms: O_3  and  C_24 
REMARK    2  A    between atoms: N_5  and  C_8 
REMARK    3  A    between atoms: N_6  and  C_15 
REMARK    4  A    between atoms: C_18  and  C_24 
ROOT
ATOM      1  F           0      35.669   3.047  19.577  0.00  0.00    -0.204 F 
ATOM      2  O           0      40.526   3.223  18.265  0.00  0.00    -0.286 OA
ATOM      3  N           0      40.510   3.447  22.336  0.00  0.00    -0.350 N 
ATOM      4  C           0      39.261   3.347  21.660  0.00  0.00     0.051 A 
ATOM      5  C           0      41.682   3.466  21.604  0.00  0.00     0.114 A 
ATOM      6  C           0      39.237   3.268  20.251  0.00  0.00     0.045 A 
ATOM      7  C           0      38.032   3.323  22.340  0.00  0.00     0.063 A 
ATOM      8  C           0      36.825   3.222  21.641  0.00  0.00     0.071 A 
ATOM      9  C           0      41.771   3.397  20.270  0.00  0.00     0.104 A 
ATOM     10  C           0      40.512   3.291  19.488  0.00  0.00     0.202 A 
ATOM     11  C           0      38.028   3.167  19.551  0.00  0.00     0.062 A 
ATOM     12  C           0      36.823   3.145  20.252  0.00  0.00     0.143 A 
ENDROOT
BRANCH   8  13
ATOM     13  N           0      35.617   3.201  22.345  0.00  0.00    -0.375 N 
ATOM     14  C           0      35.654   3.453  23.791  0.00  0.00     0.153 C 
ATOM     15  C           0      34.397   2.900  24.464  0.00  0.00     0.289 C 
ATOM     16  N           0      33.184   3.407  23.824  0.00  0.00     0.086 N 
ATOM     17  C           0      33.161   3.025  22.414  0.00  0.00     0.289 C 
ATOM     18  H           0      32.368   3.013  24.292  0.00  0.00     0.316 HD
ATOM     19  C           0      34.372   3.581  21.665  0.00  0.00     0.153 C 
ENDBRANCH   8  13
BRANCH   3  20
ATOM     20  C           0      40.591   3.532  23.811  0.00  0.00     0.090 A 
ATOM     21  C           0      41.190   4.726  24.475  0.00  0.00     0.028 A 
ATOM     22  C           0      39.715   4.470  24.572  0.00  0.00     0.028 A 
ENDBRANCH   3  20
BRANCH   9  23
ATOM     23  C           0      43.100   3.430  19.660  0.00  0.00     0.181 C 
ATOM     24  O           0      43.462   4.250  18.835  0.00  0.00    -0.646 OA
BRANCH  23  25
ATOM     25  O           0      43.850   2.421  20.150  0.00  0.00    -0.772 OA
ATOM     26  H           0      43.578   1.549  19.788  0.00  0.00     0.167 HD
ENDBRANCH  23  25
ENDBRANCH   9  23
TORSDOF 4
