REMARK  4 active torsions:
REMARK  status: ('A' for Active; 'I' for Inactive)
REMARK    1  A    between atoms: O_3  and  C_24 
REMARK    2  A    between atoms: N_5  and  C_8 
REMARK    3  A    between atoms: N_6  and  C_15 
REMARK    4  A    between atoms: C_18  and  C_24 
ROOT
ATOM      1  F           0      35.562   3.221  19.433  0.00  0.00    -0.204 F 
ATOM      2  O           0      40.466   3.222  18.302  0.00  0.00    -0.286 OA
ATOM      3  N           0      40.310   3.224  22.376  0.00  0.00    -0.350 N 
ATOM      4  C           0      39.084   3.225  21.653  0.00  0.00     0.051 A 
ATOM      5  C           0      41.508   3.223  21.687  0.00  0.00     0.114 A 
ATOM      6  C           0      39.108   3.224  20.241  0.00  0.00     0.045 A 
ATOM      7  C           0      37.831   3.225  22.288  0.00  0.00     0.063 A 
ATOM      8  C           0      36.647   3.224  21.543  0.00  0.00     0.071 A 
ATOM      9  C           0      41.643   3.223  20.355  0.00  0.00     0.104 A 
ATOM     10  C           0      40.411   3.223  19.526  0.00  0.00     0.202 A 
ATOM     11  C           0      37.922   3.223  19.496  0.00  0.00     0.062 A 
ATOM     12  C           0      36.693   3.223  20.153  0.00  0.00     0.143 A 
ENDROOT
BRANCH   8  13
ATOM     13  N           0      35.413   3.226  22.202  0.00  0.00    -0.375 N 
ATOM     14  C           0      34.235   2.751  21.464  0.00  0.00     0.153 C 
ATOM     15  C           0      32.952   3.285  22.102  0.00  0.00     0.289 C 
ATOM     16  N           0      32.899   2.975  23.529  0.00  0.00     0.086 N 
ATOM     17  C           0      34.042   3.572  24.218  0.00  0.00     0.289 C 
ATOM     18  H           0      32.036   3.352  23.923  0.00  0.00     0.316 HD
ATOM     19  C           0      35.365   3.051  23.658  0.00  0.00     0.153 C 
ENDBRANCH   8  13
BRANCH   3  20
ATOM     20  C           0      40.340   3.225  23.855  0.00  0.00     0.090 A 
ATOM     21  C           0      40.785   4.432  24.610  0.00  0.00     0.028 A 
ATOM     22  C           0      39.344   4.012  24.640  0.00  0.00     0.028 A 
ENDBRANCH   3  20
BRANCH   9  23
ATOM     23  C           0      42.994   3.223  19.794  0.00  0.00     0.181 C 
ATOM     24  O           0      43.913   2.536  20.203  0.00  0.00    -0.646 OA
BRANCH  23  25
ATOM     25  O           0      43.058   4.095  18.765  0.00  0.00    -0.772 OA
ATOM     26  H           0      42.204   4.555  18.617  0.00  0.00     0.167 HD
ENDBRANCH  23  25
ENDBRANCH   9  23
TORSDOF 4
