REMARK  4 active torsions:
REMARK  status: ('A' for Active; 'I' for Inactive)
REMARK    1  A    between atoms: O01_2  and  C13_22 
REMARK    2  A    between atoms: N01_6  and  C11_20 
REMARK    3  A    between atoms: N_9  and  C06_15 
REMARK    4  A    between atoms: C18_27  and  C20_29 
ROOT
HETATM    1  F   MFX G 101      46.772  14.318  15.450  1.00 51.60    -0.204 F 
HETATM    2  O02 MFX G 101      44.673  17.664  12.357  1.00 42.61    -0.286 OA
HETATM    3  N   MFX G 101      41.467  15.374  13.674  1.00 46.25    -0.348 N 
HETATM    4  C11 MFX G 101      44.429  13.697  15.539  1.00 46.11     0.085 A 
HETATM    5  C12 MFX G 101      42.873  15.056  14.175  1.00 44.46     0.084 A 
HETATM    6  C13 MFX G 101      43.127  13.995  15.082  1.00 44.83     0.120 A 
HETATM    7  C14 MFX G 101      43.957  15.843  13.721  1.00 43.01     0.048 A 
HETATM    8  C15 MFX G 101      45.499  14.513  15.075  1.00 46.00     0.141 A 
HETATM    9  C16 MFX G 101      41.263  16.466  12.744  1.00 45.81     0.114 A 
HETATM   10  C17 MFX G 101      45.255  15.564  14.175  1.00 44.16     0.062 A 
HETATM   11  C18 MFX G 101      42.398  17.282  12.273  1.00 45.17     0.107 A 
HETATM   12  C19 MFX G 101      43.738  16.987  12.747  1.00 42.86     0.203 A 
ENDROOT
BRANCH   4  13
HETATM   13  N01 MFX G 101      44.572  12.581  16.506  1.00 47.98    -0.276 NA
HETATM   14  C03 MFX G 101      45.803  11.603  16.279  1.00 55.03     0.102 C 
HETATM   15  C01 MFX G 101      46.025  10.896  17.678  1.00 61.18     0.031 C 
HETATM   16  C02 MFX G 101      45.136  11.486  18.540  1.00 61.49     0.204 C 
HETATM   17  C05 MFX G 101      46.038   9.371  17.698  1.00 60.59     0.009 C 
HETATM   18  N02 MFX G 101      43.781  10.808  18.620  1.00 58.62    -0.069 N 
HETATM   19  C04 MFX G 101      44.670  12.887  17.823  1.00 49.35     0.129 C 
HETATM   20  C10 MFX G 101      43.890   9.378  18.783  1.00 59.20     0.233 C 
HETATM   21 2HN0 MFX G 101      43.304  10.993  17.866  1.00 70.34     0.277 HD
HETATM   22  H02 MFX G 101      43.278  11.188  19.422  1.00  0.00     0.277 HD
HETATM   23  C07 MFX G 101      44.724   8.764  17.803  1.00 61.04     0.028 C 
ENDBRANCH   4  13
BRANCH   6  24
HETATM   24  O01 MFX G 101      42.065  13.195  15.570  1.00 44.82    -0.352 OA
HETATM   25  C   MFX G 101      41.999  11.917  14.929  1.00 42.31     0.210 C 
ENDBRANCH   6  24
BRANCH   3  26
HETATM   26  C06 MFX G 101      40.291  14.628  14.046  1.00 46.49     0.090 A 
HETATM   27  C08 MFX G 101      39.238  13.828  13.291  1.00 47.34     0.028 A 
HETATM   28  C09 MFX G 101      38.892  15.196  13.827  1.00 49.59     0.028 A 
ENDBRANCH   3  26
BRANCH  11  29
HETATM   29  C20 MFX G 101      42.127  18.423  11.304  1.00 48.24     0.214 C 
HETATM   30  O03 MFX G 101      41.544  18.168  10.213  1.00 48.93    -0.644 OA
HETATM   31  O   MFX G 101      42.465  19.605  11.589  1.00 49.20    -0.644 OA
ENDBRANCH  11  29
TORSDOF 4
