REMARK  4 active torsions:
REMARK  status: ('A' for Active; 'I' for Inactive)
REMARK    1  A    between atoms: O01_2  and  C13_22 
REMARK    2  A    between atoms: N01_6  and  C11_20 
REMARK    3  A    between atoms: N_9  and  C06_15 
REMARK    4  A    between atoms: C18_27  and  C20_29 
ROOT
HETATM    1  F   MFX G 101      38.855 -11.260  -0.016  1.00 51.60    -0.204 F 
HETATM    2  O02 MFX G 101      38.849 -16.240   0.599  1.00 42.61    -0.286 OA
HETATM    3  N   MFX G 101      42.437 -15.027   2.305  1.00 46.25    -0.348 N 
HETATM    4  C11 MFX G 101      40.969 -11.638   1.111  1.00 46.11     0.085 A 
HETATM    5  C12 MFX G 101      41.507 -13.984   1.693  1.00 44.46     0.084 A 
HETATM    6  C13 MFX G 101      41.827 -12.602   1.685  1.00 44.83     0.120 A 
HETATM    7  C14 MFX G 101      40.287 -14.408   1.116  1.00 43.01     0.048 A 
HETATM    8  C15 MFX G 101      39.743 -12.092   0.549  1.00 46.00     0.141 A 
HETATM    9  C16 MFX G 101      42.065 -16.427   2.283  1.00 45.81     0.114 A 
HETATM   10  C17 MFX G 101      39.420 -13.459   0.551  1.00 44.16     0.062 A 
HETATM   11  C18 MFX G 101      40.792 -16.863   1.678  1.00 45.17     0.107 A 
HETATM   12  C19 MFX G 101      39.900 -15.876   1.097  1.00 42.86     0.203 A 
ENDROOT
BRANCH   4  13
HETATM   13  N01 MFX G 101      41.394 -10.220   1.182  1.00 47.98    -0.276 NA
HETATM   14  C03 MFX G 101      41.253  -9.371  -0.153  1.00 55.03     0.102 C 
HETATM   15  C01 MFX G 101      41.244  -7.862   0.322  1.00 61.18     0.031 C 
HETATM   16  C02 MFX G 101      41.259  -7.901   1.692  1.00 61.49     0.204 C 
HETATM   17  C05 MFX G 101      42.262  -6.921  -0.314  1.00 60.59     0.009 C 
HETATM   18  N02 MFX G 101      42.643  -7.896   2.315  1.00 58.62    -0.069 N 
HETATM   19  C04 MFX G 101      40.806  -9.423   2.108  1.00 49.35     0.129 C 
HETATM   20  C10 MFX G 101      43.497  -6.877   1.751  1.00 59.20     0.233 C 
HETATM   21 2HN0 MFX G 101      43.029  -8.714   2.201  1.00 70.34     0.277 HD
HETATM   22  H02 MFX G 101      42.546  -7.721   3.315  1.00  0.00     0.277 HD
HETATM   23  C07 MFX G 101      43.565  -6.927   0.328  1.00 61.04     0.028 C 
ENDBRANCH   4  13
BRANCH   6  24
HETATM   24  O01 MFX G 101      43.032 -12.138   2.266  1.00 44.82    -0.352 OA
HETATM   25  C   MFX G 101      44.012 -11.775   1.288  1.00 42.31     0.210 C 
ENDBRANCH   6  24
BRANCH   3  26
HETATM   26  C06 MFX G 101      43.715 -14.719   2.898  1.00 46.49     0.090 A 
HETATM   27  C08 MFX G 101      45.143 -15.209   2.698  1.00 47.34     0.028 A 
HETATM   28  C09 MFX G 101      44.363 -15.657   3.911  1.00 49.59     0.028 A 
ENDBRANCH   3  26
BRANCH  11  29
HETATM   29  C20 MFX G 101      40.444 -18.344   1.691  1.00 48.24     0.214 C 
HETATM   30  O03 MFX G 101      39.917 -18.852   0.661  1.00 48.93    -0.644 OA
HETATM   31  O   MFX G 101      40.690 -19.056   2.703  1.00 49.20    -0.644 OA
ENDBRANCH  11  29
TORSDOF 4
