REMARK  4 active torsions:
REMARK  status: ('A' for Active; 'I' for Inactive)
REMARK    1  A    between atoms: O01_2  and  C13_22 
REMARK    2  A    between atoms: N01_6  and  C11_20 
REMARK    3  A    between atoms: N_9  and  C06_15 
REMARK    4  A    between atoms: C18_27  and  C20_29 
ROOT
HETATM    1  F   MFX G 101      27.967  -9.402   7.768  1.00 51.60    -0.204 F 
HETATM    2  O02 MFX G 101      30.001  -6.208   4.476  1.00 42.61    -0.286 OA
HETATM    3  N   MFX G 101      32.369  -9.606   4.163  1.00 46.25    -0.348 N 
HETATM    4  C11 MFX G 101      29.811 -10.697   6.872  1.00 46.11     0.085 A 
HETATM    5  C12 MFX G 101      31.199  -9.595   5.143  1.00 44.46     0.084 A 
HETATM    6  C13 MFX G 101      30.889 -10.712   5.959  1.00 44.83     0.120 A 
HETATM    7  C14 MFX G 101      30.399  -8.432   5.241  1.00 43.01     0.048 A 
HETATM    8  C15 MFX G 101      29.016  -9.519   6.939  1.00 46.00     0.141 A 
HETATM    9  C16 MFX G 101      32.645  -8.436   3.355  1.00 45.81     0.114 A 
HETATM   10  C17 MFX G 101      29.318  -8.407   6.136  1.00 44.16     0.062 A 
HETATM   11  C18 MFX G 101      31.808  -7.227   3.463  1.00 45.17     0.107 A 
HETATM   12  C19 MFX G 101      30.691  -7.209   4.391  1.00 42.86     0.203 A 
ENDROOT
BRANCH   4  13
HETATM   13  N01 MFX G 101      29.565 -11.932   7.655  1.00 47.98    -0.276 NA
HETATM   14  C03 MFX G 101      30.325 -12.051   9.044  1.00 55.03     0.102 C 
HETATM   15  C01 MFX G 101      29.503 -13.123   9.869  1.00 61.18     0.031 C 
HETATM   16  C02 MFX G 101      28.417 -13.437   9.094  1.00 61.49     0.204 C 
HETATM   17  C05 MFX G 101      30.271 -14.316  10.428  1.00 60.59     0.009 C 
HETATM   18  N02 MFX G 101      28.627 -14.601   8.143  1.00 58.62    -0.069 N 
HETATM   19  C04 MFX G 101      28.285 -12.233   7.986  1.00 49.35     0.129 C 
HETATM   20  C10 MFX G 101      29.229 -15.741   8.793  1.00 59.20     0.233 C 
HETATM   21 2HN0 MFX G 101      29.153 -14.334   7.449  1.00 70.34     0.277 HD
HETATM   22  H02 MFX G 101      27.720 -14.882   7.771  1.00  0.00     0.277 HD
HETATM   23  C07 MFX G 101      30.427 -15.418   9.496  1.00 61.04     0.028 C 
ENDBRANCH   4  13
BRANCH   6  24
HETATM   24  O01 MFX G 101      31.659 -11.899   5.879  1.00 44.82    -0.352 OA
HETATM   25  C   MFX G 101      31.026 -12.914   5.093  1.00 42.31     0.210 C 
ENDBRANCH   6  24
BRANCH   3  26
HETATM   26  C06 MFX G 101      33.267 -10.722   3.994  1.00 46.49     0.090 A 
HETATM   27  C08 MFX G 101      34.689 -10.892   3.473  1.00 47.34     0.028 A 
HETATM   28  C09 MFX G 101      33.523 -11.330   2.619  1.00 49.59     0.028 A 
ENDBRANCH   3  26
BRANCH  11  29
HETATM   29  C20 MFX G 101      32.135  -6.028   2.585  1.00 48.24     0.214 C 
HETATM   30  O03 MFX G 101      33.113  -6.108   1.788  1.00 48.93    -0.644 OA
HETATM   31  O   MFX G 101      31.435  -4.979   2.638  1.00 49.20    -0.644 OA
ENDBRANCH  11  29
TORSDOF 4
