REMARK  4 active torsions:
REMARK  status: ('A' for Active; 'I' for Inactive)
REMARK    1  A    between atoms: O01_2  and  C13_22 
REMARK    2  A    between atoms: N01_6  and  C11_20 
REMARK    3  A    between atoms: N_9  and  C06_15 
REMARK    4  A    between atoms: C18_27  and  C20_29 
ROOT
HETATM    1  F   MFX G 101      44.625  -8.009   1.566  1.00 51.60    -0.204 F 
HETATM    2  O02 MFX G 101      43.213 -12.824   1.585  1.00 42.61    -0.286 OA
HETATM    3  N   MFX G 101      39.626 -10.732   1.695  1.00 46.25    -0.348 N 
HETATM    4  C11 MFX G 101      42.207  -7.833   1.646  1.00 46.11     0.085 A 
HETATM    5  C12 MFX G 101      40.943  -9.962   1.661  1.00 44.46     0.084 A 
HETATM    6  C13 MFX G 101      40.987  -8.544   1.668  1.00 44.83     0.120 A 
HETATM    7  C14 MFX G 101      42.159 -10.684   1.623  1.00 43.01     0.048 A 
HETATM    8  C15 MFX G 101      43.414  -8.586   1.595  1.00 46.00     0.141 A 
HETATM    9  C16 MFX G 101      39.637 -12.180   1.691  1.00 45.81     0.114 A 
HETATM   10  C17 MFX G 101      43.378  -9.990   1.590  1.00 44.16     0.062 A 
HETATM   11  C18 MFX G 101      40.908 -12.928   1.653  1.00 45.17     0.107 A 
HETATM   12  C19 MFX G 101      42.165 -12.203   1.618  1.00 42.86     0.203 A 
ENDROOT
BRANCH   4  13
HETATM   13  N01 MFX G 101      42.132  -6.352   1.630  1.00 47.98    -0.276 NA
HETATM   14  C03 MFX G 101      43.385  -5.574   2.217  1.00 55.03     0.102 C 
HETATM   15  C01 MFX G 101      43.287  -4.119   1.602  1.00 61.18     0.031 C 
HETATM   16  C02 MFX G 101      42.223  -4.150   0.737  1.00 61.49     0.204 C 
HETATM   17  C05 MFX G 101      43.301  -2.944   2.575  1.00 60.59     0.009 C 
HETATM   18  N02 MFX G 101      40.888  -3.779   1.356  1.00 58.62    -0.069 N 
HETATM   19  C04 MFX G 101      41.926  -5.736   0.440  1.00 49.35     0.129 C 
HETATM   20  C10 MFX G 101      40.963  -2.572   2.146  1.00 59.20     0.233 C 
HETATM   21 2HN0 MFX G 101      40.594  -4.466   1.878  1.00 70.34     0.277 HD
HETATM   22  H02 MFX G 101      40.214  -3.633   0.605  1.00  0.00     0.277 HD
HETATM   23  C07 MFX G 101      42.000  -2.606   3.123  1.00 61.04     0.028 C 
ENDBRANCH   4  13
BRANCH   6  24
HETATM   24  O01 MFX G 101      39.791  -7.786   1.691  1.00 44.82    -0.352 OA
HETATM   25  C   MFX G 101      39.280  -7.523   0.381  1.00 42.31     0.210 C 
ENDBRANCH   6  24
BRANCH   3  26
HETATM   26  C06 MFX G 101      38.329 -10.106   1.760  1.00 46.49     0.090 A 
HETATM   27  C08 MFX G 101      37.066 -10.326   2.583  1.00 47.34     0.028 A 
HETATM   28  C09 MFX G 101      37.101 -10.765   1.138  1.00 49.59     0.028 A 
ENDBRANCH   3  26
BRANCH  11  29
HETATM   29  C20 MFX G 101      40.863 -14.449   1.640  1.00 48.24     0.214 C 
HETATM   30  O03 MFX G 101      40.325 -15.032   0.657  1.00 48.93    -0.644 OA
HETATM   31  O   MFX G 101      41.367 -15.117   2.584  1.00 49.20    -0.644 OA
ENDBRANCH  11  29
TORSDOF 4
