REMARK  4 active torsions:
REMARK  status: ('A' for Active; 'I' for Inactive)
REMARK    1  A    between atoms: O01_2  and  C13_22 
REMARK    2  A    between atoms: N01_6  and  C11_20 
REMARK    3  A    between atoms: N_9  and  C06_15 
REMARK    4  A    between atoms: C18_27  and  C20_29 
ROOT
HETATM    1  F   MFX G 101      38.735  26.799  23.303  1.00 51.60    -0.204 F 
HETATM    2  O02 MFX G 101      43.400  28.003  21.902  1.00 42.61    -0.286 OA
HETATM    3  N   MFX G 101      43.942  24.919  24.630  1.00 46.25    -0.348 N 
HETATM    4  C11 MFX G 101      40.076  25.257  24.610  1.00 46.11     0.085 A 
HETATM    5  C12 MFX G 101      42.529  25.392  24.304  1.00 44.46     0.084 A 
HETATM    6  C13 MFX G 101      41.383  24.812  24.906  1.00 44.83     0.120 A 
HETATM    7  C14 MFX G 101      42.356  26.443  23.373  1.00 43.01     0.048 A 
HETATM    8  C15 MFX G 101      39.931  26.307  23.659  1.00 46.00     0.141 A 
HETATM    9  C16 MFX G 101      45.080  25.548  23.991  1.00 45.81     0.114 A 
HETATM   10  C17 MFX G 101      41.062  26.888  23.061  1.00 44.16     0.062 A 
HETATM   11  C18 MFX G 101      44.893  26.644  23.022  1.00 45.17     0.107 A 
HETATM   12  C19 MFX G 101      43.551  27.098  22.704  1.00 42.86     0.203 A 
ENDROOT
BRANCH   4  13
HETATM   13  N01 MFX G 101      38.951  24.560  25.279  1.00 47.98    -0.276 NA
HETATM   14  C03 MFX G 101      38.336  25.276  26.556  1.00 55.03     0.102 C 
HETATM   15  C01 MFX G 101      36.894  24.646  26.722  1.00 61.18     0.031 C 
HETATM   16  C02 MFX G 101      36.722  23.817  25.643  1.00 61.49     0.204 C 
HETATM   17  C05 MFX G 101      36.547  24.034  28.075  1.00 60.59     0.009 C 
HETATM   18  N02 MFX G 101      37.171  22.385  25.863  1.00 58.62    -0.069 N 
HETATM   19  C04 MFX G 101      37.852  24.266  24.541  1.00 49.35     0.129 C 
HETATM   20  C10 MFX G 101      36.678  21.836  27.104  1.00 59.20     0.233 C 
HETATM   21 2HN0 MFX G 101      38.082  22.348  25.855  1.00 70.34     0.277 HD
HETATM   22  H02 MFX G 101      36.819  21.815  25.094  1.00  0.00     0.277 HD
HETATM   23  C07 MFX G 101      36.971  22.655  28.234  1.00 61.04     0.028 C 
ENDBRANCH   4  13
BRANCH   6  24
HETATM   24  O01 MFX G 101      41.515  23.749  25.832  1.00 44.82    -0.352 OA
HETATM   25  C   MFX G 101      41.200  24.142  27.172  1.00 42.31     0.210 C 
ENDBRANCH   6  24
BRANCH   3  26
HETATM   26  C06 MFX G 101      44.244  23.876  25.580  1.00 46.49     0.090 A 
HETATM   27  C08 MFX G 101      44.674  23.839  27.041  1.00 47.34     0.028 A 
HETATM   28  C09 MFX G 101      45.684  23.544  25.958  1.00 49.59     0.028 A 
ENDBRANCH   3  26
BRANCH  11  29
HETATM   29  C20 MFX G 101      46.120  27.264  22.371  1.00 48.24     0.214 C 
HETATM   30  O03 MFX G 101      46.358  27.007  21.157  1.00 48.93    -0.644 OA
HETATM   31  O   MFX G 101      46.878  28.033  23.024  1.00 49.20    -0.644 OA
ENDBRANCH  11  29
TORSDOF 4
