REMARK  4 active torsions:
REMARK  status: ('A' for Active; 'I' for Inactive)
REMARK    1  A    between atoms: O01_2  and  C13_22 
REMARK    2  A    between atoms: N01_6  and  C11_20 
REMARK    3  A    between atoms: N_9  and  C06_15 
REMARK    4  A    between atoms: C18_27  and  C20_29 
ROOT
HETATM    1  F   MFX G 101      42.338  -5.075   9.718  1.00 51.60    -0.204 F 
HETATM    2  O02 MFX G 101      44.550  -9.578   9.775  1.00 42.61    -0.286 OA
HETATM    3  N   MFX G 101      40.921 -10.224  11.690  1.00 46.25    -0.348 N 
HETATM    4  C11 MFX G 101      40.693  -6.438  10.866  1.00 46.11     0.085 A 
HETATM    5  C12 MFX G 101      41.261  -8.827  11.178  1.00 44.46     0.084 A 
HETATM    6  C13 MFX G 101      40.374  -7.731  11.334  1.00 44.83     0.120 A 
HETATM    7  C14 MFX G 101      42.499  -8.619  10.526  1.00 43.01     0.048 A 
HETATM    8  C15 MFX G 101      41.940  -6.260  10.204  1.00 46.00     0.141 A 
HETATM    9  C16 MFX G 101      41.864 -11.308  11.509  1.00 45.81     0.114 A 
HETATM   10  C17 MFX G 101      42.825  -7.341  10.047  1.00 44.16     0.062 A 
HETATM   11  C18 MFX G 101      43.154 -11.084  10.830  1.00 45.17     0.107 A 
HETATM   12  C19 MFX G 101      43.484  -9.759  10.337  1.00 42.86     0.203 A 
ENDROOT
BRANCH   4  13
HETATM   13  N01 MFX G 101      39.680  -5.373  11.062  1.00 47.98    -0.276 NA
HETATM   14  C03 MFX G 101      39.947  -4.352  12.249  1.00 55.03     0.102 C 
HETATM   15  C01 MFX G 101      39.070  -3.082  11.899  1.00 61.18     0.031 C 
HETATM   16  C02 MFX G 101      38.519  -3.336  10.669  1.00 61.49     0.204 C 
HETATM   17  C05 MFX G 101      38.094  -2.589  12.962  1.00 60.59     0.009 C 
HETATM   18  N02 MFX G 101      37.169  -4.028  10.708  1.00 58.62    -0.069 N 
HETATM   19  C04 MFX G 101      39.403  -4.555  10.018  1.00 49.35     0.129 C 
HETATM   20  C10 MFX G 101      36.257  -3.406  11.639  1.00 59.20     0.233 C 
HETATM   21 2HN0 MFX G 101      37.283  -4.903  10.933  1.00 70.34     0.277 HD
HETATM   22  H02 MFX G 101      36.758  -3.985   9.775  1.00  0.00     0.277 HD
HETATM   23  C07 MFX G 101      36.806  -3.258  12.947  1.00 61.04     0.028 C 
ENDBRANCH   4  13
BRANCH   6  24
HETATM   24  O01 MFX G 101      39.120  -7.904  11.968  1.00 44.82    -0.352 OA
HETATM   25  C   MFX G 101      39.114  -7.427  13.318  1.00 42.31     0.210 C 
ENDBRANCH   6  24
BRANCH   3  26
HETATM   26  C06 MFX G 101      39.704 -10.551  12.390  1.00 46.49     0.090 A 
HETATM   27  C08 MFX G 101      39.361 -11.003  13.804  1.00 47.34     0.028 A 
HETATM   28  C09 MFX G 101      39.318 -12.000  12.671  1.00 49.59     0.028 A 
ENDBRANCH   3  26
BRANCH  11  29
HETATM   29  C20 MFX G 101      44.105 -12.259  10.656  1.00 48.24     0.214 C 
HETATM   30  O03 MFX G 101      45.050 -12.157   9.825  1.00 48.93    -0.644 OA
HETATM   31  O   MFX G 101      43.963 -13.311  11.340  1.00 49.20    -0.644 OA
ENDBRANCH  11  29
TORSDOF 4
