REMARK  4 active torsions:
REMARK  status: ('A' for Active; 'I' for Inactive)
REMARK    1  A    between atoms: O01_2  and  C13_22 
REMARK    2  A    between atoms: N01_6  and  C11_20 
REMARK    3  A    between atoms: N_9  and  C06_15 
REMARK    4  A    between atoms: C18_27  and  C20_29 
ROOT
HETATM    1  F   MFX G 101      53.595  37.569  28.449  1.00 51.60    -0.204 F 
HETATM    2  O02 MFX G 101      54.506  37.779  23.519  1.00 42.61    -0.286 OA
HETATM    3  N   MFX G 101      55.083  33.777  24.472  1.00 46.25    -0.348 N 
HETATM    4  C11 MFX G 101      54.144  35.264  27.932  1.00 46.11     0.085 A 
HETATM    5  C12 MFX G 101      54.685  34.760  25.569  1.00 44.46     0.084 A 
HETATM    6  C13 MFX G 101      54.505  34.353  26.916  1.00 44.83     0.120 A 
HETATM    7  C14 MFX G 101      54.490  36.120  25.234  1.00 43.01     0.048 A 
HETATM    8  C15 MFX G 101      53.943  36.624  27.563  1.00 46.00     0.141 A 
HETATM    9  C16 MFX G 101      55.259  34.246  23.113  1.00 45.81     0.114 A 
HETATM   10  C17 MFX G 101      54.122  37.036  26.232  1.00 44.16     0.062 A 
HETATM   11  C18 MFX G 101      55.056  35.666  22.769  1.00 45.17     0.107 A 
HETATM   12  C19 MFX G 101      54.674  36.607  23.807  1.00 42.86     0.203 A 
ENDROOT
BRANCH   4  13
HETATM   13  N01 MFX G 101      53.959  34.722  29.300  1.00 47.98    -0.276 NA
HETATM   14  C03 MFX G 101      52.543  34.075  29.617  1.00 55.03     0.102 C 
HETATM   15  C01 MFX G 101      52.795  33.139  30.868  1.00 61.18     0.031 C 
HETATM   16  C02 MFX G 101      54.144  33.186  31.106  1.00 61.49     0.204 C 
HETATM   17  C05 MFX G 101      51.910  33.351  32.092  1.00 60.59     0.009 C 
HETATM   18  N02 MFX G 101      54.584  34.276  32.066  1.00 58.62    -0.069 N 
HETATM   19  C04 MFX G 101      54.826  33.775  29.734  1.00 49.35     0.129 C 
HETATM   20  C10 MFX G 101      53.779  34.312  33.264  1.00 59.20     0.233 C 
HETATM   21 2HN0 MFX G 101      54.542  35.084  31.647  1.00 70.34     0.277 HD
HETATM   22  H02 MFX G 101      55.553  34.100  32.331  1.00  0.00     0.277 HD
HETATM   23  C07 MFX G 101      52.380  34.384  32.998  1.00 61.04     0.028 C 
ENDBRANCH   4  13
BRANCH   6  24
HETATM   24  O01 MFX G 101      54.677  32.997  27.287  1.00 44.82    -0.352 OA
HETATM   25  C   MFX G 101      53.465  32.241  27.191  1.00 42.31     0.210 C 
ENDBRANCH   6  24
BRANCH   3  26
HETATM   26  C06 MFX G 101      55.333  32.375  24.697  1.00 46.49     0.090 A 
HETATM   27  C08 MFX G 101      55.988  31.255  23.900  1.00 47.34     0.028 A 
HETATM   28  C09 MFX G 101      54.484  31.302  24.023  1.00 49.59     0.028 A 
ENDBRANCH   3  26
BRANCH  11  29
HETATM   29  C20 MFX G 101      55.243  36.105  21.325  1.00 48.24     0.214 C 
HETATM   30  O03 MFX G 101      55.359  35.219  20.431  1.00 48.93    -0.644 OA
HETATM   31  O   MFX G 101      55.268  37.329  21.020  1.00 49.20    -0.644 OA
ENDBRANCH  11  29
TORSDOF 4
