REMARK  4 active torsions:
REMARK  status: ('A' for Active; 'I' for Inactive)
REMARK    1  A    between atoms: O01_2  and  C13_22 
REMARK    2  A    between atoms: N01_6  and  C11_20 
REMARK    3  A    between atoms: N_9  and  C06_15 
REMARK    4  A    between atoms: C18_27  and  C20_29 
ROOT
HETATM    1  F   MFX G 101      42.815  11.352  10.417  1.00 51.60    -0.204 F 
HETATM    2  O02 MFX G 101      46.192   8.081  12.170  1.00 42.61    -0.286 OA
HETATM    3  N   MFX G 101      44.058   9.220  15.547  1.00 46.25    -0.348 N 
HETATM    4  C11 MFX G 101      42.307  11.314  12.788  1.00 46.11     0.085 A 
HETATM    5  C12 MFX G 101      43.692   9.817  14.192  1.00 44.46     0.084 A 
HETATM    6  C13 MFX G 101      42.640  10.756  14.042  1.00 44.83     0.120 A 
HETATM    7  C14 MFX G 101      44.424   9.421  13.048  1.00 43.01     0.048 A 
HETATM    8  C15 MFX G 101      43.053  10.888  11.653  1.00 46.00     0.141 A 
HETATM    9  C16 MFX G 101      45.145   8.267  15.646  1.00 45.81     0.114 A 
HETATM   10  C17 MFX G 101      44.098   9.960  11.794  1.00 44.16     0.062 A 
HETATM   11  C18 MFX G 101      45.906   7.860  14.450  1.00 45.17     0.107 A 
HETATM   12  C19 MFX G 101      45.562   8.421  13.156  1.00 42.86     0.203 A 
ENDROOT
BRANCH   4  13
HETATM   13  N01 MFX G 101      41.172  12.268  12.747  1.00 47.98    -0.276 NA
HETATM   14  C03 MFX G 101      41.424  13.695  13.395  1.00 55.03     0.102 C 
HETATM   15  C01 MFX G 101      40.322  14.634  12.756  1.00 61.18     0.031 C 
HETATM   16  C02 MFX G 101      39.666  13.863  11.830  1.00 61.49     0.204 C 
HETATM   17  C05 MFX G 101      39.423  15.411  13.711  1.00 60.59     0.009 C 
HETATM   18  N02 MFX G 101      38.457  13.118  12.364  1.00 58.62    -0.069 N 
HETATM   19  C04 MFX G 101      40.641  12.576  11.538  1.00 49.35     0.129 C 
HETATM   20  C10 MFX G 101      37.584  13.967  13.140  1.00 59.20     0.233 C 
HETATM   21 2HN0 MFX G 101      38.734  12.418  12.878  1.00 70.34     0.277 HD
HETATM   22  H02 MFX G 101      37.930  12.749  11.573  1.00  0.00     0.277 HD
HETATM   23  C07 MFX G 101      38.264  14.672  14.177  1.00 61.04     0.028 C 
ENDBRANCH   4  13
BRANCH   6  24
HETATM   24  O01 MFX G 101      41.875  11.165  15.162  1.00 44.82    -0.352 OA
HETATM   25  C   MFX G 101      42.459  12.274  15.853  1.00 42.31     0.210 C 
ENDBRANCH   6  24
BRANCH   3  26
HETATM   26  C06 MFX G 101      43.402   9.565  16.784  1.00 46.49     0.090 A 
HETATM   27  C08 MFX G 101      43.805   9.575  18.253  1.00 47.34     0.028 A 
HETATM   28  C09 MFX G 101      42.894   8.487  17.737  1.00 49.59     0.028 A 
ENDBRANCH   3  26
BRANCH  11  29
HETATM   29  C20 MFX G 101      47.032   6.848  14.607  1.00 48.24     0.214 C 
HETATM   30  O03 MFX G 101      46.749   5.617  14.584  1.00 48.93    -0.644 OA
HETATM   31  O   MFX G 101      48.228   7.229  14.742  1.00 49.20    -0.644 OA
ENDBRANCH  11  29
TORSDOF 4
