REMARK  4 active torsions:
REMARK  status: ('A' for Active; 'I' for Inactive)
REMARK    1  A    between atoms: O01_2  and  C13_22 
REMARK    2  A    between atoms: N01_6  and  C11_20 
REMARK    3  A    between atoms: N_9  and  C06_15 
REMARK    4  A    between atoms: C18_27  and  C20_29 
ROOT
HETATM    1  F   MFX G 101      38.782  20.899  15.574  1.00 51.60    -0.204 F 
HETATM    2  O02 MFX G 101      42.272  18.571  12.822  1.00 42.61    -0.286 OA
HETATM    3  N   MFX G 101      38.995  16.027  12.637  1.00 46.25    -0.348 N 
HETATM    4  C11 MFX G 101      37.622  18.888  14.872  1.00 46.11     0.085 A 
HETATM    5  C12 MFX G 101      38.894  17.323  13.437  1.00 44.46     0.084 A 
HETATM    6  C13 MFX G 101      37.711  17.693  14.126  1.00 44.83     0.120 A 
HETATM    7  C14 MFX G 101      40.016  18.182  13.492  1.00 43.01     0.048 A 
HETATM    8  C15 MFX G 101      38.762  19.740  14.900  1.00 46.00     0.141 A 
HETATM    9  C16 MFX G 101      40.228  15.694  11.955  1.00 45.81     0.114 A 
HETATM   10  C17 MFX G 101      39.938  19.379  14.221  1.00 44.16     0.062 A 
HETATM   11  C18 MFX G 101      41.395  16.594  12.018  1.00 45.17     0.107 A 
HETATM   12  C19 MFX G 101      41.307  17.830  12.773  1.00 42.86     0.203 A 
ENDROOT
BRANCH   4  13
HETATM   13  N01 MFX G 101      36.328  19.185  15.531  1.00 47.98    -0.276 NA
HETATM   14  C03 MFX G 101      36.313  19.128  17.118  1.00 55.03     0.102 C 
HETATM   15  C01 MFX G 101      35.047  19.976  17.545  1.00 61.18     0.031 C 
HETATM   16  C02 MFX G 101      34.538  20.498  16.384  1.00 61.49     0.204 C 
HETATM   17  C05 MFX G 101      34.027  19.304  18.459  1.00 60.59     0.009 C 
HETATM   18  N02 MFX G 101      33.497  19.633  15.699  1.00 58.62    -0.069 N 
HETATM   19  C04 MFX G 101      35.735  20.376  15.268  1.00 49.35     0.129 C 
HETATM   20  C10 MFX G 101      32.488  19.155  16.615  1.00 59.20     0.233 C 
HETATM   21 2HN0 MFX G 101      33.907  18.923  15.301  1.00 70.34     0.277 HD
HETATM   22  H02 MFX G 101      33.041  20.189  14.975  1.00  0.00     0.277 HD
HETATM   23  C07 MFX G 101      33.034  18.507  17.761  1.00 61.04     0.028 C 
ENDBRANCH   4  13
BRANCH   6  24
HETATM   24  O01 MFX G 101      36.563  16.865  14.082  1.00 44.82    -0.352 OA
HETATM   25  C   MFX G 101      35.596  17.314  13.128  1.00 42.31     0.210 C 
ENDBRANCH   6  24
BRANCH   3  26
HETATM   26  C06 MFX G 101      37.928  15.062  12.529  1.00 46.49     0.090 A 
HETATM   27  C08 MFX G 101      37.534  13.801  13.287  1.00 47.34     0.028 A 
HETATM   28  C09 MFX G 101      38.168  13.684  11.922  1.00 49.59     0.028 A 
ENDBRANCH   3  26
BRANCH  11  29
HETATM   29  C20 MFX G 101      42.663  16.202  11.274  1.00 48.24     0.214 C 
HETATM   30  O03 MFX G 101      43.777  16.348  11.854  1.00 48.93    -0.644 OA
HETATM   31  O   MFX G 101      42.606  15.726  10.107  1.00 49.20    -0.644 OA
ENDBRANCH  11  29
TORSDOF 4
