REMARK  4 active torsions:
REMARK  status: ('A' for Active; 'I' for Inactive)
REMARK    1  A    between atoms: O01_2  and  C13_22 
REMARK    2  A    between atoms: N01_6  and  C11_20 
REMARK    3  A    between atoms: N_9  and  C06_15 
REMARK    4  A    between atoms: C18_27  and  C20_29 
ROOT
HETATM    1  F   MFX G 101      41.992  14.192  16.465  1.00 51.60    -0.204 F 
HETATM    2  O02 MFX G 101      40.336  14.771  11.763  1.00 42.61    -0.286 OA
HETATM    3  N   MFX G 101      42.621  11.307  11.598  1.00 46.25    -0.348 N 
HETATM    4  C11 MFX G 101      42.982  12.288  15.336  1.00 46.11     0.085 A 
HETATM    5  C12 MFX G 101      42.480  12.049  12.923  1.00 44.46     0.084 A 
HETATM    6  C13 MFX G 101      43.108  11.596  14.111  1.00 44.83     0.120 A 
HETATM    7  C14 MFX G 101      41.699  13.228  12.968  1.00 43.01     0.048 A 
HETATM    8  C15 MFX G 101      42.180  13.464  15.354  1.00 46.00     0.141 A 
HETATM    9  C16 MFX G 101      41.963  11.815  10.412  1.00 45.81     0.114 A 
HETATM   10  C17 MFX G 101      41.557  13.921  14.181  1.00 44.16     0.062 A 
HETATM   11  C18 MFX G 101      41.151  13.046  10.465  1.00 45.17     0.107 A 
HETATM   12  C19 MFX G 101      41.009  13.756  11.723  1.00 42.86     0.203 A 
ENDROOT
BRANCH   4  13
HETATM   13  N01 MFX G 101      43.661  11.708  16.519  1.00 47.98    -0.276 NA
HETATM   14  C03 MFX G 101      44.819  12.580  17.168  1.00 55.03     0.102 C 
HETATM   15  C01 MFX G 101      44.974  12.021  18.641  1.00 61.18     0.031 C 
HETATM   16  C02 MFX G 101      43.982  11.086  18.792  1.00 61.49     0.204 C 
HETATM   17  C05 MFX G 101      46.364  11.573  19.078  1.00 60.59     0.009 C 
HETATM   18  N02 MFX G 101      44.378   9.671  18.411  1.00 58.62    -0.069 N 
HETATM   19  C04 MFX G 101      42.901  11.372  17.590  1.00 49.35     0.129 C 
HETATM   20  C10 MFX G 101      45.643   9.279  18.987  1.00 59.20     0.233 C 
HETATM   21 2HN0 MFX G 101      44.423   9.603  17.503  1.00 70.34     0.277 HD
HETATM   22  H02 MFX G 101      43.657   9.033  18.747  1.00  0.00     0.277 HD
HETATM   23  C07 MFX G 101      46.693  10.205  18.718  1.00 61.04     0.028 C 
ENDBRANCH   4  13
BRANCH   6  24
HETATM   24  O01 MFX G 101      43.886  10.412  14.108  1.00 44.82    -0.352 OA
HETATM   25  C   MFX G 101      43.239   9.326  14.778  1.00 42.31     0.210 C 
ENDBRANCH   6  24
BRANCH   3  26
HETATM   26  C06 MFX G 101      43.410  10.112  11.423  1.00 46.49     0.090 A 
HETATM   27  C08 MFX G 101      44.868   9.821  11.092  1.00 47.34     0.028 A 
HETATM   28  C09 MFX G 101      43.808   9.623  10.035  1.00 49.59     0.028 A 
ENDBRANCH   3  26
BRANCH  11  29
HETATM   29  C20 MFX G 101      40.473  13.531   9.193  1.00 48.24     0.214 C 
HETATM   30  O03 MFX G 101      40.818  14.646   8.708  1.00 48.93    -0.644 OA
HETATM   31  O   MFX G 101      39.592  12.829   8.623  1.00 49.20    -0.644 OA
ENDBRANCH  11  29
TORSDOF 4
