REMARK  4 active torsions:
REMARK  status: ('A' for Active; 'I' for Inactive)
REMARK    1  A    between atoms: O01_2  and  C13_22 
REMARK    2  A    between atoms: N01_6  and  C11_20 
REMARK    3  A    between atoms: N_9  and  C06_15 
REMARK    4  A    between atoms: C18_27  and  C20_29 
ROOT
HETATM    1  F   MFX G 101      41.730  -8.870   0.218  1.00 51.60    -0.204 F 
HETATM    2  O02 MFX G 101      38.587  -5.038   0.995  1.00 42.61    -0.286 OA
HETATM    3  N   MFX G 101      36.425  -8.366   2.221  1.00 46.25    -0.348 N 
HETATM    4  C11 MFX G 101      39.767  -9.990   1.098  1.00 46.11     0.085 A 
HETATM    5  C12 MFX G 101      37.844  -8.547   1.690  1.00 44.46     0.084 A 
HETATM    6  C13 MFX G 101      38.457  -9.822   1.598  1.00 44.83     0.120 A 
HETATM    7  C14 MFX G 101      38.571  -7.406   1.276  1.00 43.01     0.048 A 
HETATM    8  C15 MFX G 101      40.480  -8.823   0.701  1.00 46.00     0.141 A 
HETATM    9  C16 MFX G 101      35.844  -7.041   2.290  1.00 45.81     0.114 A 
HETATM   10  C17 MFX G 101      39.879  -7.556   0.787  1.00 44.16     0.062 A 
HETATM   11  C18 MFX G 101      36.607  -5.856   1.856  1.00 45.17     0.107 A 
HETATM   12  C19 MFX G 101      37.959  -6.019   1.352  1.00 42.86     0.203 A 
ENDROOT
BRANCH   4  13
HETATM   13  N01 MFX G 101      40.315 -11.367   1.071  1.00 47.98    -0.276 NA
HETATM   14  C03 MFX G 101      40.536 -12.012  -0.363  1.00 55.03     0.102 C 
HETATM   15  C01 MFX G 101      41.581 -13.178  -0.129  1.00 61.18     0.031 C 
HETATM   16  C02 MFX G 101      41.947 -13.093   1.189  1.00 61.49     0.204 C 
HETATM   17  C05 MFX G 101      41.194 -14.572  -0.610  1.00 60.59     0.009 C 
HETATM   18  N02 MFX G 101      41.095 -13.914   2.140  1.00 58.62    -0.069 N 
HETATM   19  C04 MFX G 101      41.500 -11.595   1.689  1.00 49.35     0.129 C 
HETATM   20  C10 MFX G 101      40.899 -15.267   1.675  1.00 59.20     0.233 C 
HETATM   21 2HN0 MFX G 101      40.286 -13.510   2.249  1.00 70.34     0.277 HD
HETATM   22  H02 MFX G 101      41.564 -13.948   3.045  1.00  0.00     0.277 HD
HETATM   23  C07 MFX G 101      40.404 -15.334   0.339  1.00 61.04     0.028 C 
ENDBRANCH   4  13
BRANCH   6  24
HETATM   24  O01 MFX G 101      37.765 -10.986   2.016  1.00 44.82    -0.352 OA
HETATM   25  C   MFX G 101      37.241 -11.740   0.918  1.00 42.31     0.210 C 
ENDBRANCH   6  24
BRANCH   3  26
HETATM   26  C06 MFX G 101      35.580  -9.453   2.648  1.00 46.49     0.090 A 
HETATM   27  C08 MFX G 101      34.076  -9.683   2.726  1.00 47.34     0.028 A 
HETATM   28  C09 MFX G 101      34.856  -9.413   3.990  1.00 49.59     0.028 A 
ENDBRANCH   3  26
BRANCH  11  29
HETATM   29  C20 MFX G 101      35.954  -4.485   1.959  1.00 48.24     0.214 C 
HETATM   30  O03 MFX G 101      34.827  -4.307   1.417  1.00 48.93    -0.644 OA
HETATM   31  O   MFX G 101      36.519  -3.547   2.586  1.00 49.20    -0.644 OA
ENDBRANCH  11  29
TORSDOF 4
