REMARK  4 active torsions:
REMARK  status: ('A' for Active; 'I' for Inactive)
REMARK    1  A    between atoms: O01_2  and  C13_22 
REMARK    2  A    between atoms: N01_6  and  C11_20 
REMARK    3  A    between atoms: N_9  and  C06_15 
REMARK    4  A    between atoms: C18_27  and  C20_29 
ROOT
HETATM    1  F   MFX G 101      40.448  -8.809   1.092  1.00 51.60    -0.204 F 
HETATM    2  O02 MFX G 101      45.082 -10.669   1.583  1.00 42.61    -0.286 OA
HETATM    3  N   MFX G 101      42.629 -14.004   1.914  1.00 46.25    -0.348 N 
HETATM    4  C11 MFX G 101      40.019 -11.176   1.406  1.00 46.11     0.085 A 
HETATM    5  C12 MFX G 101      42.002 -12.630   1.695  1.00 44.46     0.084 A 
HETATM    6  C13 MFX G 101      40.598 -12.449   1.600  1.00 44.83     0.120 A 
HETATM    7  C14 MFX G 101      42.847 -11.501   1.582  1.00 43.01     0.048 A 
HETATM    8  C15 MFX G 101      40.894 -10.060   1.284  1.00 46.00     0.141 A 
HETATM    9  C16 MFX G 101      44.069 -14.133   2.008  1.00 45.81     0.114 A 
HETATM   10  C17 MFX G 101      42.285 -10.231   1.378  1.00 44.16     0.062 A 
HETATM   11  C18 MFX G 101      44.944 -12.952   1.892  1.00 45.17     0.107 A 
HETATM   12  C19 MFX G 101      44.356 -11.642   1.680  1.00 42.86     0.203 A 
ENDROOT
BRANCH   4  13
HETATM   13  N01 MFX G 101      38.542 -11.109   1.297  1.00 47.98    -0.276 NA
HETATM   14  C03 MFX G 101      37.785 -10.294   2.430  1.00 55.03     0.102 C 
HETATM   15  C01 MFX G 101      36.377  -9.934   1.803  1.00 61.18     0.031 C 
HETATM   16  C02 MFX G 101      36.420 -10.380   0.508  1.00 61.49     0.204 C 
HETATM   17  C05 MFX G 101      35.135 -10.338   2.591  1.00 60.59     0.009 C 
HETATM   18  N02 MFX G 101      35.938 -11.805   0.309  1.00 58.62    -0.069 N 
HETATM   19  C04 MFX G 101      38.008 -10.605   0.157  1.00 49.35     0.129 C 
HETATM   20  C10 MFX G 101      34.680 -12.059   0.971  1.00 59.20     0.233 C 
HETATM   21 2HN0 MFX G 101      36.568 -12.385   0.620  1.00 70.34     0.277 HD
HETATM   22  H02 MFX G 101      35.816 -11.968  -0.691  1.00  0.00     0.277 HD
HETATM   23  C07 MFX G 101      34.692 -11.699   2.351  1.00 61.04     0.028 C 
ENDBRANCH   4  13
BRANCH   6  24
HETATM   24  O01 MFX G 101      39.721 -13.557   1.694  1.00 44.82    -0.352 OA
HETATM   25  C   MFX G 101      39.319 -14.051   0.412  1.00 42.31     0.210 C 
ENDBRANCH   6  24
BRANCH   3  26
HETATM   26  C06 MFX G 101      41.870 -15.220   2.068  1.00 46.49     0.090 A 
HETATM   27  C08 MFX G 101      42.024 -16.490   2.896  1.00 47.34     0.028 A 
HETATM   28  C09 MFX G 101      42.324 -16.523   1.417  1.00 49.59     0.028 A 
ENDBRANCH   3  26
BRANCH  11  29
HETATM   29  C20 MFX G 101      46.450 -13.144   1.987  1.00 48.24     0.214 C 
HETATM   30  O03 MFX G 101      46.992 -13.138   3.128  1.00 48.93    -0.644 OA
HETATM   31  O   MFX G 101      47.145 -13.322   0.949  1.00 49.20    -0.644 OA
ENDBRANCH  11  29
TORSDOF 4
