REMARK  4 active torsions:
REMARK  status: ('A' for Active; 'I' for Inactive)
REMARK    1  A    between atoms: O01_2  and  C13_22 
REMARK    2  A    between atoms: N01_6  and  C11_20 
REMARK    3  A    between atoms: N_9  and  C06_15 
REMARK    4  A    between atoms: C18_27  and  C20_29 
ROOT
HETATM    1  F   MFX G 101      38.318 -13.115  -0.809  1.00 51.60    -0.204 F 
HETATM    2  O02 MFX G 101      38.457 -18.103  -0.281  1.00 42.61    -0.286 OA
HETATM    3  N   MFX G 101      41.311 -16.735   2.409  1.00 46.25    -0.348 N 
HETATM    4  C11 MFX G 101      40.034 -13.403   0.880  1.00 46.11     0.085 A 
HETATM    5  C12 MFX G 101      40.532 -15.730   1.566  1.00 44.46     0.084 A 
HETATM    6  C13 MFX G 101      40.750 -14.332   1.667  1.00 44.83     0.120 A 
HETATM    7  C14 MFX G 101      39.562 -16.207   0.654  1.00 43.01     0.048 A 
HETATM    8  C15 MFX G 101      39.056 -13.911  -0.020  1.00 46.00     0.141 A 
HETATM    9  C16 MFX G 101      41.053 -18.153   2.264  1.00 45.81     0.114 A 
HETATM   10  C17 MFX G 101      38.835 -15.294  -0.128  1.00 44.16     0.062 A 
HETATM   11  C18 MFX G 101      40.041 -18.644   1.309  1.00 45.17     0.107 A 
HETATM   12  C19 MFX G 101      39.293 -17.694   0.506  1.00 42.86     0.203 A 
ENDROOT
BRANCH   4  13
HETATM   13  N01 MFX G 101      40.328 -11.965   1.089  1.00 47.98    -0.276 NA
HETATM   14  C03 MFX G 101      40.714 -11.127  -0.203  1.00 55.03     0.102 C 
HETATM   15  C01 MFX G 101      40.442  -9.619   0.191  1.00 61.18     0.031 C 
HETATM   16  C02 MFX G 101      39.889  -9.655   1.446  1.00 61.49     0.204 C 
HETATM   17  C05 MFX G 101      41.588  -8.629   0.012  1.00 60.59     0.009 C 
HETATM   18  N02 MFX G 101      40.890  -9.580   2.584  1.00 58.62    -0.069 N 
HETATM   19  C04 MFX G 101      39.374 -11.197   1.671  1.00 49.35     0.129 C 
HETATM   20  C10 MFX G 101      41.854  -8.520   2.402  1.00 59.20     0.233 C 
HETATM   21 2HN0 MFX G 101      41.325 -10.377   2.659  1.00 70.34     0.277 HD
HETATM   22  H02 MFX G 101      40.380  -9.407   3.451  1.00  0.00     0.277 HD
HETATM   23  C07 MFX G 101      42.506  -8.569   1.135  1.00 61.04     0.028 C 
ENDBRANCH   4  13
BRANCH   6  24
HETATM   24  O01 MFX G 101      41.703 -13.816   2.580  1.00 44.82    -0.352 OA
HETATM   25  C   MFX G 101      42.918 -13.414   1.940  1.00 42.31     0.210 C 
ENDBRANCH   6  24
BRANCH   3  26
HETATM   26  C06 MFX G 101      42.339 -16.370   3.352  1.00 46.49     0.090 A 
HETATM   27  C08 MFX G 101      43.838 -16.620   3.464  1.00 47.34     0.028 A 
HETATM   28  C09 MFX G 101      42.886 -17.380   4.356  1.00 49.59     0.028 A 
ENDBRANCH   3  26
BRANCH  11  29
HETATM   29  C20 MFX G 101      39.801 -20.142   1.202  1.00 48.24     0.214 C 
HETATM   30  O03 MFX G 101      40.197 -20.889   2.141  1.00 48.93    -0.644 OA
HETATM   31  O   MFX G 101      39.204 -20.631   0.203  1.00 49.20    -0.644 OA
ENDBRANCH  11  29
TORSDOF 4
