REMARK  4 active torsions:
REMARK  status: ('A' for Active; 'I' for Inactive)
REMARK    1  A    between atoms: O01_2  and  C13_22 
REMARK    2  A    between atoms: N01_6  and  C11_20 
REMARK    3  A    between atoms: N_9  and  C06_15 
REMARK    4  A    between atoms: C18_27  and  C20_29 
ROOT
HETATM    1  F   MFX G 101      39.510 -12.520   1.694  1.00 51.60    -0.204 F 
HETATM    2  O02 MFX G 101      40.658  -7.635   1.694  1.00 42.61    -0.286 OA
HETATM    3  N   MFX G 101      44.354  -9.529   1.671  1.00 46.25    -0.348 N 
HETATM    4  C11 MFX G 101      41.935 -12.564   1.692  1.00 46.11     0.085 A 
HETATM    5  C12 MFX G 101      43.081 -10.369   1.678  1.00 44.46     0.084 A 
HETATM    6  C13 MFX G 101      43.114 -11.787   1.678  1.00 44.83     0.120 A 
HETATM    7  C14 MFX G 101      41.827  -9.714   1.685  1.00 43.01     0.048 A 
HETATM    8  C15 MFX G 101      40.688 -11.878   1.686  1.00 46.00     0.141 A 
HETATM    9  C16 MFX G 101      44.265  -8.083   1.677  1.00 45.81     0.114 A 
HETATM   10  C17 MFX G 101      40.647 -10.473   1.688  1.00 44.16     0.062 A 
HETATM   11  C18 MFX G 101      42.955  -7.406   1.685  1.00 45.17     0.107 A 
HETATM   12  C19 MFX G 101      41.738  -8.198   1.688  1.00 42.86     0.203 A 
ENDROOT
BRANCH   4  13
HETATM   13  N01 MFX G 101      42.090 -14.038   1.665  1.00 47.98    -0.276 NA
HETATM   14  C03 MFX G 101      41.098 -14.871   2.584  1.00 55.03     0.102 C 
HETATM   15  C01 MFX G 101      41.107 -16.332   1.975  1.00 61.18     0.031 C 
HETATM   16  C02 MFX G 101      41.884 -16.262   0.847  1.00 61.49     0.204 C 
HETATM   17  C05 MFX G 101      41.434 -17.483   2.921  1.00 60.59     0.009 C 
HETATM   18  N02 MFX G 101      43.358 -16.544   1.070  1.00 58.62    -0.069 N 
HETATM   19  C04 MFX G 101      41.992 -14.669   0.468  1.00 49.35     0.129 C 
HETATM   20  C10 MFX G 101      43.578 -17.735   1.857  1.00 59.20     0.233 C 
HETATM   21 2HN0 MFX G 101      43.744 -15.831   1.485  1.00 70.34     0.277 HD
HETATM   22  H02 MFX G 101      43.804 -16.670   0.161  1.00  0.00     0.277 HD
HETATM   23  C07 MFX G 101      42.854 -17.737   3.085  1.00 61.04     0.028 C 
ENDBRANCH   4  13
BRANCH   6  24
HETATM   24  O01 MFX G 101      44.350 -12.479   1.657  1.00 44.82    -0.352 OA
HETATM   25  C   MFX G 101      44.654 -13.104   2.908  1.00 42.31     0.210 C 
ENDBRANCH   6  24
BRANCH   3  26
HETATM   26  C06 MFX G 101      45.686 -10.083   1.690  1.00 46.49     0.090 A 
HETATM   27  C08 MFX G 101      47.095  -9.504   1.691  1.00 47.34     0.028 A 
HETATM   28  C09 MFX G 101      46.543 -10.122   0.428  1.00 49.59     0.028 A 
ENDBRANCH   3  26
BRANCH  11  29
HETATM   29  C20 MFX G 101      42.916  -5.885   1.680  1.00 48.24     0.214 C 
HETATM   30  O03 MFX G 101      43.876  -5.251   2.202  1.00 48.93    -0.644 OA
HETATM   31  O   MFX G 101      41.952  -5.266   1.152  1.00 49.20    -0.644 OA
ENDBRANCH  11  29
TORSDOF 4
