REMARK  4 active torsions:
REMARK  status: ('A' for Active; 'I' for Inactive)
REMARK    1  A    between atoms: O01_2  and  C13_22 
REMARK    2  A    between atoms: N01_6  and  C11_20 
REMARK    3  A    between atoms: N_9  and  C06_15 
REMARK    4  A    between atoms: C18_27  and  C20_29 
ROOT
HETATM    1  F   MFX G 101      38.728  -8.327   1.510  1.00 51.60    -0.204 F 
HETATM    2  O02 MFX G 101      43.706  -8.938   1.670  1.00 42.61    -0.286 OA
HETATM    3  N   MFX G 101      42.227 -12.817   1.537  1.00 46.25    -0.348 N 
HETATM    4  C11 MFX G 101      38.948 -10.742   1.479  1.00 46.11     0.085 A 
HETATM    5  C12 MFX G 101      41.253 -11.643   1.529  1.00 44.46     0.084 A 
HETATM    6  C13 MFX G 101      39.848 -11.829   1.478  1.00 44.83     0.120 A 
HETATM    7  C14 MFX G 101      41.768 -10.326   1.573  1.00 43.01     0.048 A 
HETATM    8  C15 MFX G 101      39.494  -9.428   1.511  1.00 46.00     0.141 A 
HETATM    9  C16 MFX G 101      43.654 -12.572   1.594  1.00 45.81     0.114 A 
HETATM   10  C17 MFX G 101      40.885  -9.235   1.564  1.00 44.16     0.062 A 
HETATM   11  C18 MFX G 101      44.184 -11.196   1.642  1.00 45.17     0.107 A 
HETATM   12  C19 MFX G 101      43.264 -10.073   1.631  1.00 42.86     0.203 A 
ENDROOT
BRANCH   4  13
HETATM   13  N01 MFX G 101      37.501 -11.055   1.398  1.00 47.98    -0.276 NA
HETATM   14  C03 MFX G 101      36.592 -10.510   2.580  1.00 55.03     0.102 C 
HETATM   15  C01 MFX G 101      35.122 -10.502   1.994  1.00 61.18     0.031 C 
HETATM   16  C02 MFX G 101      35.242 -10.869   0.679  1.00 61.49     0.204 C 
HETATM   17  C05 MFX G 101      34.049 -11.244   2.783  1.00 60.59     0.009 C 
HETATM   18  N02 MFX G 101      35.138 -12.361   0.422  1.00 58.62    -0.069 N 
HETATM   19  C04 MFX G 101      36.823 -10.661   0.292  1.00 49.35     0.129 C 
HETATM   20  C10 MFX G 101      34.007 -12.958   1.094  1.00 59.20     0.233 C 
HETATM   21 2HN0 MFX G 101      35.905 -12.770   0.696  1.00 70.34     0.277 HD
HETATM   22  H02 MFX G 101      35.033 -12.509  -0.582  1.00  0.00     0.277 HD
HETATM   23  C07 MFX G 101      33.965 -12.663   2.488  1.00 61.04     0.028 C 
ENDBRANCH   4  13
BRANCH   6  24
HETATM   24  O01 MFX G 101      39.297 -13.133   1.418  1.00 44.82    -0.352 OA
HETATM   25  C   MFX G 101      38.973 -13.533   0.083  1.00 42.31     0.210 C 
ENDBRANCH   6  24
BRANCH   3  26
HETATM   26  C06 MFX G 101      41.821 -14.201   1.520  1.00 46.49     0.090 A 
HETATM   27  C08 MFX G 101      41.144 -15.138   2.512  1.00 47.34     0.028 A 
HETATM   28  C09 MFX G 101      42.626 -15.270   2.253  1.00 49.59     0.028 A 
ENDBRANCH   3  26
BRANCH  11  29
HETATM   29  C20 MFX G 101      45.691 -10.993   1.691  1.00 48.24     0.214 C 
HETATM   30  O03 MFX G 101      46.393 -11.810   2.351  1.00 48.93    -0.644 OA
HETATM   31  O   MFX G 101      46.233 -10.036   1.072  1.00 49.20    -0.644 OA
ENDBRANCH  11  29
TORSDOF 4
