REMARK  4 active torsions:
REMARK  status: ('A' for Active; 'I' for Inactive)
REMARK    1  A    between atoms: O01_2  and  C13_22 
REMARK    2  A    between atoms: N01_6  and  C11_20 
REMARK    3  A    between atoms: N_9  and  C06_15 
REMARK    4  A    between atoms: C18_27  and  C20_29 
ROOT
HETATM    1  F   MFX G 101      47.337  12.979  15.912  1.00 51.60    -0.204 F 
HETATM    2  O02 MFX G 101      47.843  17.332  13.468  1.00 42.61    -0.286 OA
HETATM    3  N   MFX G 101      43.740  16.690  13.526  1.00 46.25    -0.348 N 
HETATM    4  C11 MFX G 101      45.036  13.549  15.400  1.00 46.11     0.085 A 
HETATM    5  C12 MFX G 101      44.668  15.669  14.177  1.00 44.46     0.084 A 
HETATM    6  C13 MFX G 101      44.175  14.497  14.805  1.00 44.83     0.120 A 
HETATM    7  C14 MFX G 101      46.063  15.898  14.152  1.00 43.01     0.048 A 
HETATM    8  C15 MFX G 101      46.434  13.811  15.372  1.00 46.00     0.141 A 
HETATM    9  C16 MFX G 101      44.294  17.869  12.892  1.00 45.81     0.114 A 
HETATM   10  C17 MFX G 101      46.930  14.969  14.749  1.00 44.16     0.062 A 
HETATM   11  C18 MFX G 101      45.751  18.101  12.869  1.00 45.17     0.107 A 
HETATM   12  C19 MFX G 101      46.640  17.136  13.489  1.00 42.86     0.203 A 
ENDROOT
BRANCH   4  13
HETATM   13  N01 MFX G 101      44.408  12.373  16.051  1.00 47.98    -0.276 NA
HETATM   14  C03 MFX G 101      44.856  12.068  17.544  1.00 55.03     0.102 C 
HETATM   15  C01 MFX G 101      43.699  11.169  18.142  1.00 61.18     0.031 C 
HETATM   16  C02 MFX G 101      42.736  11.103  17.168  1.00 61.49     0.204 C 
HETATM   17  C05 MFX G 101      44.097   9.831  18.756  1.00 60.59     0.009 C 
HETATM   18  N02 MFX G 101      42.887   9.944  16.201  1.00 58.62    -0.069 N 
HETATM   19  C04 MFX G 101      43.055  12.334  16.130  1.00 49.35     0.129 C 
HETATM   20  C10 MFX G 101      43.119   8.689  16.877  1.00 59.20     0.233 C 
HETATM   21 2HN0 MFX G 101      43.575  10.113  15.629  1.00 70.34     0.277 HD
HETATM   22  H02 MFX G 101      42.027   9.864  15.657  1.00  0.00     0.277 HD
HETATM   23  C07 MFX G 101      44.204   8.743  17.801  1.00 61.04     0.028 C 
ENDBRANCH   4  13
BRANCH   6  24
HETATM   24  O01 MFX G 101      42.783  14.241  14.862  1.00 44.82    -0.352 OA
HETATM   25  C   MFX G 101      42.288  13.621  13.672  1.00 42.31     0.210 C 
ENDBRANCH   6  24
BRANCH   3  26
HETATM   26  C06 MFX G 101      42.305  16.553  13.466  1.00 46.49     0.090 A 
HETATM   27  C08 MFX G 101      41.185  17.256  12.710  1.00 47.34     0.028 A 
HETATM   28  C09 MFX G 101      41.386  17.539  14.180  1.00 49.59     0.028 A 
ENDBRANCH   3  26
BRANCH  11  29
HETATM   29  C20 MFX G 101      46.281  19.360  12.200  1.00 48.24     0.214 C 
HETATM   30  O03 MFX G 101      46.503  19.340  10.956  1.00 48.93    -0.644 OA
HETATM   31  O   MFX G 101      46.483  20.411  12.869  1.00 49.20    -0.644 OA
ENDBRANCH  11  29
TORSDOF 4
