REMARK  4 active torsions:
REMARK  status: ('A' for Active; 'I' for Inactive)
REMARK    1  A    between atoms: O01_2  and  C13_22 
REMARK    2  A    between atoms: N01_6  and  C11_20 
REMARK    3  A    between atoms: N_9  and  C06_15 
REMARK    4  A    between atoms: C18_27  and  C20_29 
ROOT
HETATM    1  F   MFX G 101      41.982  29.830  22.629  1.00 51.60    -0.204 F 
HETATM    2  O02 MFX G 101      42.896  34.586  21.318  1.00 42.61    -0.286 OA
HETATM    3  N   MFX G 101      46.442  32.610  20.439  1.00 46.25    -0.348 N 
HETATM    4  C11 MFX G 101      44.271  29.711  21.836  1.00 46.11     0.085 A 
HETATM    5  C12 MFX G 101      45.271  31.826  21.026  1.00 44.46     0.084 A 
HETATM    6  C13 MFX G 101      45.352  30.434  21.285  1.00 44.83     0.120 A 
HETATM    7  C14 MFX G 101      44.068  32.509  21.320  1.00 43.01     0.048 A 
HETATM    8  C15 MFX G 101      43.068  30.422  22.110  1.00 46.00     0.141 A 
HETATM    9  C16 MFX G 101      46.309  34.032  20.197  1.00 45.81     0.114 A 
HETATM   10  C17 MFX G 101      42.982  31.801  21.858  1.00 44.16     0.062 A 
HETATM   11  C18 MFX G 101      45.052  34.738  20.508  1.00 45.17     0.107 A 
HETATM   12  C19 MFX G 101      43.933  34.000  21.063  1.00 42.86     0.203 A 
ENDROOT
BRANCH   4  13
HETATM   13  N01 MFX G 101      44.459  28.255  22.041  1.00 47.98    -0.276 NA
HETATM   14  C03 MFX G 101      44.857  27.793  23.507  1.00 55.03     0.102 C 
HETATM   15  C01 MFX G 101      44.468  26.260  23.572  1.00 61.18     0.031 C 
HETATM   16  C02 MFX G 101      43.854  25.980  22.378  1.00 61.49     0.204 C 
HETATM   17  C05 MFX G 101      45.555  25.278  23.993  1.00 60.59     0.009 C 
HETATM   18  N02 MFX G 101      44.787  25.507  21.279  1.00 58.62    -0.069 N 
HETATM   19  C04 MFX G 101      43.429  27.428  21.735  1.00 49.35     0.129 C 
HETATM   20  C10 MFX G 101      45.689  24.472  21.729  1.00 59.20     0.233 C 
HETATM   21 2HN0 MFX G 101      45.268  26.213  20.964  1.00 70.34     0.277 HD
HETATM   22  H02 MFX G 101      44.223  25.134  20.515  1.00  0.00     0.277 HD
HETATM   23  C07 MFX G 101      46.409  24.830  22.907  1.00 61.04     0.028 C 
ENDBRANCH   4  13
BRANCH   6  24
HETATM   24  O01 MFX G 101      46.535  29.713  20.990  1.00 44.82    -0.352 OA
HETATM   25  C   MFX G 101      47.321  29.443  22.155  1.00 42.31     0.210 C 
ENDBRANCH   6  24
BRANCH   3  26
HETATM   26  C06 MFX G 101      47.723  32.028  20.122  1.00 46.49     0.090 A 
HETATM   27  C08 MFX G 101      49.027  32.549  19.533  1.00 47.34     0.028 A 
HETATM   28  C09 MFX G 101      48.110  31.703  18.683  1.00 49.59     0.028 A 
ENDBRANCH   3  26
BRANCH  11  29
HETATM   29  C20 MFX G 101      44.962  36.231  20.225  1.00 48.24     0.214 C 
HETATM   30  O03 MFX G 101      44.959  37.034  21.200  1.00 48.93    -0.644 OA
HETATM   31  O   MFX G 101      44.906  36.661  19.040  1.00 49.20    -0.644 OA
ENDBRANCH  11  29
TORSDOF 4
