REMARK  4 active torsions:
REMARK  status: ('A' for Active; 'I' for Inactive)
REMARK    1  A    between atoms: O01_2  and  C13_22 
REMARK    2  A    between atoms: N01_6  and  C11_20 
REMARK    3  A    between atoms: N_9  and  C06_15 
REMARK    4  A    between atoms: C18_27  and  C20_29 
ROOT
HETATM    1  F   MFX G 101      40.192  27.075  24.013  1.00 51.60    -0.204 F 
HETATM    2  O02 MFX G 101      44.423  27.406  21.335  1.00 42.61    -0.286 OA
HETATM    3  N   MFX G 101      43.799  23.317  21.716  1.00 46.25    -0.348 N 
HETATM    4  C11 MFX G 101      40.758  24.743  23.661  1.00 46.11     0.085 A 
HETATM    5  C12 MFX G 101      42.808  24.289  22.348  1.00 44.46     0.084 A 
HETATM    6  C13 MFX G 101      41.671  23.843  23.069  1.00 44.83     0.120 A 
HETATM    7  C14 MFX G 101      43.029  25.680  22.211  1.00 43.01     0.048 A 
HETATM    8  C15 MFX G 101      40.999  26.136  23.496  1.00 46.00     0.141 A 
HETATM    9  C16 MFX G 101      44.948  23.825  20.994  1.00 45.81     0.114 A 
HETATM   10  C17 MFX G 101      42.125  26.586  22.785  1.00 44.16     0.062 A 
HETATM   11  C18 MFX G 101      45.174  25.276  20.856  1.00 45.17     0.107 A 
HETATM   12  C19 MFX G 101      44.233  26.208  21.452  1.00 42.86     0.203 A 
ENDROOT
BRANCH   4  13
HETATM   13  N01 MFX G 101      39.591  24.164  24.369  1.00 47.98    -0.276 NA
HETATM   14  C03 MFX G 101      38.852  25.112  25.407  1.00 55.03     0.102 C 
HETATM   15  C01 MFX G 101      37.413  24.478  25.584  1.00 61.18     0.031 C 
HETATM   16  C02 MFX G 101      37.352  23.433  24.698  1.00 61.49     0.204 C 
HETATM   17  C05 MFX G 101      36.958  24.155  27.003  1.00 60.59     0.009 C 
HETATM   18  N02 MFX G 101      37.807  22.098  25.256  1.00 58.62    -0.069 N 
HETATM   19  C04 MFX G 101      38.568  23.679  23.623  1.00 49.35     0.129 C 
HETATM   20  C10 MFX G 101      37.215  21.808  26.541  1.00 59.20     0.233 C 
HETATM   21 2HN0 MFX G 101      38.715  22.094  25.332  1.00 70.34     0.277 HD
HETATM   22  H02 MFX G 101      37.535  21.364  24.602  1.00  0.00     0.277 HD
HETATM   23  C07 MFX G 101      37.392  22.858  27.489  1.00 61.04     0.028 C 
ENDBRANCH   4  13
BRANCH   6  24
HETATM   24  O01 MFX G 101      41.408  22.459  23.215  1.00 44.82    -0.352 OA
HETATM   25  C   MFX G 101      40.504  21.962  22.223  1.00 42.31     0.210 C 
ENDBRANCH   6  24
BRANCH   3  26
HETATM   26  C06 MFX G 101      43.692  21.882  21.810  1.00 46.49     0.090 A 
HETATM   27  C08 MFX G 101      44.618  20.709  21.509  1.00 47.34     0.028 A 
HETATM   28  C09 MFX G 101      43.479  21.022  20.568  1.00 49.59     0.028 A 
ENDBRANCH   3  26
BRANCH  11  29
HETATM   29  C20 MFX G 101      46.390  25.758  20.079  1.00 48.24     0.214 C 
HETATM   30  O03 MFX G 101      46.264  26.001  18.845  1.00 48.93    -0.644 OA
HETATM   31  O   MFX G 101      47.499  25.927  20.656  1.00 49.20    -0.644 OA
ENDBRANCH  11  29
TORSDOF 4
