REMARK  4 active torsions:
REMARK  status: ('A' for Active; 'I' for Inactive)
REMARK    1  A    between atoms: O01_2  and  C13_22 
REMARK    2  A    between atoms: N01_6  and  C11_20 
REMARK    3  A    between atoms: N_9  and  C06_15 
REMARK    4  A    between atoms: C18_27  and  C20_29 
ROOT
HETATM    1  F   MFX G 101      38.505   1.000  14.602  1.00 51.60    -0.204 F 
HETATM    2  O02 MFX G 101      42.524  -1.386  12.777  1.00 42.61    -0.286 OA
HETATM    3  N   MFX G 101      39.422  -4.091  12.226  1.00 46.25    -0.348 N 
HETATM    4  C11 MFX G 101      37.563  -1.117  13.889  1.00 46.11     0.085 A 
HETATM    5  C12 MFX G 101      39.131  -2.738  12.868  1.00 44.46     0.084 A 
HETATM    6  C13 MFX G 101      37.828  -2.367  13.288  1.00 44.83     0.120 A 
HETATM    7  C14 MFX G 101      40.195  -1.823  13.050  1.00 43.01     0.048 A 
HETATM    8  C15 MFX G 101      38.650  -0.213  14.048  1.00 46.00     0.141 A 
HETATM    9  C16 MFX G 101      40.772  -4.422  11.819  1.00 45.81     0.114 A 
HETATM   10  C17 MFX G 101      39.944  -0.573  13.637  1.00 44.16     0.062 A 
HETATM   11  C18 MFX G 101      41.877  -3.465  12.013  1.00 45.17     0.107 A 
HETATM   12  C19 MFX G 101      41.609  -2.174  12.620  1.00 42.86     0.203 A 
ENDROOT
BRANCH   4  13
HETATM   13  N01 MFX G 101      36.158  -0.828  14.266  1.00 47.98    -0.276 NA
HETATM   14  C03 MFX G 101      35.633  -1.497  15.606  1.00 55.03     0.102 C 
HETATM   15  C01 MFX G 101      34.379  -0.630  16.032  1.00 61.18     0.031 C 
HETATM   16  C02 MFX G 101      34.317   0.403  15.132  1.00 61.49     0.204 C 
HETATM   17  C05 MFX G 101      33.065  -1.366  16.270  1.00 60.59     0.009 C 
HETATM   18  N02 MFX G 101      33.475   0.125  13.901  1.00 58.62    -0.069 N 
HETATM   19  C04 MFX G 101      35.791   0.469  14.414  1.00 49.35     0.129 C 
HETATM   20  C10 MFX G 101      32.187  -0.440  14.230  1.00 59.20     0.233 C 
HETATM   21 2HN0 MFX G 101      33.924  -0.443  13.348  1.00 70.34     0.277 HD
HETATM   22  H02 MFX G 101      33.325   1.006  13.407  1.00  0.00     0.277 HD
HETATM   23  C07 MFX G 101      32.278  -1.588  15.071  1.00 61.04     0.028 C 
ENDBRANCH   4  13
BRANCH   6  24
HETATM   24  O01 MFX G 101      36.735  -3.250  13.109  1.00 44.82    -0.352 OA
HETATM   25  C   MFX G 101      36.527  -4.106  14.237  1.00 42.31     0.210 C 
ENDBRANCH   6  24
BRANCH   3  26
HETATM   26  C06 MFX G 101      38.426  -5.112  12.012  1.00 46.49     0.090 A 
HETATM   27  C08 MFX G 101      38.443  -6.545  11.496  1.00 47.34     0.028 A 
HETATM   28  C09 MFX G 101      37.917  -5.440  10.612  1.00 49.59     0.028 A 
ENDBRANCH   3  26
BRANCH  11  29
HETATM   29  C20 MFX G 101      43.275  -3.858  11.558  1.00 48.24     0.214 C 
HETATM   30  O03 MFX G 101      43.500  -3.974  10.320  1.00 48.93    -0.644 OA
HETATM   31  O   MFX G 101      44.197  -4.049  12.398  1.00 49.20    -0.644 OA
ENDBRANCH  11  29
TORSDOF 4
