REMARK  3 active torsions:
REMARK  status: ('A' for Active; 'I' for Inactive)
REMARK    1  A    between atoms: O_4  and  C_26 
REMARK    2  A    between atoms: N_6  and  C_12 
REMARK    3  A    between atoms: C_25  and  C_26 
ROOT
ATOM      1  F           0      -1.695  -2.899  -0.201  0.00  0.00    -0.204 F 
ATOM      2  O           0      -1.000   1.760   0.251  0.00  0.00    -0.344 OA
ATOM      3  O           0       3.331  -2.409  -0.078  0.00  0.00    -0.286 OA
ATOM      4  N           0       1.846   1.375   0.166  0.00  0.00    -0.346 N 
ATOM      5  C           0       1.258   2.717   0.144  0.00  0.00     0.110 C 
ATOM      6  C           0      -1.338  -0.562   0.013  0.00  0.00     0.105 A 
ATOM      7  C           0       0.938   0.298   0.103  0.00  0.00     0.085 A 
ATOM      8  C           0      -0.449   0.507   0.131  0.00  0.00     0.126 A 
ATOM      9  C           0      -0.094   2.687   0.857  0.00  0.00     0.201 C 
ATOM     10  C           0       1.413  -1.023   0.003  0.00  0.00     0.048 A 
ATOM     11  C           0      -0.850  -1.863  -0.097  0.00  0.00     0.146 A 
ATOM     12  C           0       3.204   1.126   0.146  0.00  0.00     0.114 A 
ATOM     13  C           0       0.524  -2.099  -0.096  0.00  0.00     0.062 A 
ATOM     14  C           0       1.137   3.214  -1.299  0.00  0.00     0.035 C 
ATOM     15  C           0       2.879  -1.273  -0.007  0.00  0.00     0.202 A 
ATOM     16  C           0       3.771  -0.085   0.073  0.00  0.00     0.104 A 
ENDROOT
BRANCH   6  17
ATOM     17  N           0      -2.721  -0.349   0.016  0.00  0.00    -0.373 N 
ATOM     18  C           0      -3.551  -0.973   1.051  0.00  0.00     0.153 C 
ATOM     19  C           0      -4.886  -0.236   1.187  0.00  0.00     0.291 C 
ATOM     20  N           0      -5.567  -0.134  -0.110  0.00  0.00     0.087 N 
ATOM     21  C           0      -4.724   0.602  -1.060  0.00  0.00     0.291 C 
ATOM     22  C           0      -6.864   0.524   0.042  0.00  0.00     0.310 C 
ATOM     23  C           0      -3.385  -0.108  -1.271  0.00  0.00     0.153 C 
ENDBRANCH   6  17
BRANCH  16  24
ATOM     24  C           0       5.232  -0.169   0.064  0.00  0.00     0.181 C 
ATOM     25  O           0       5.973   0.628   0.612  0.00  0.00    -0.646 OA
BRANCH  24  26
ATOM     26  O           0       5.620  -1.254  -0.638  0.00  0.00    -0.772 OA
ATOM     27  H           0       6.596  -1.345  -0.667  0.00  0.00     0.167 HD
ENDBRANCH  24  26
ENDBRANCH  16  24
TORSDOF 3
